@<TRIPOS>MOLECULE
816
   62    66     1     0     0
SMALL
bcc


@<TRIPOS>ATOM
      1 C4          -3.0730     1.9700    -0.1110 ca         1 816       0.489800
      2 C5          -1.7200     2.1930    -0.3810 ca         1 816      -0.512500
      3 C6          -1.4290     3.4060    -1.0510 ca         1 816       0.785200
      4 N1          -2.4280     4.2590    -1.2910 nb         1 816      -0.837000
      5 N3          -4.0800     2.8090    -0.3640 nb         1 816      -0.759000
      6 C2          -3.6660     3.9220    -0.9340 ca         1 816       0.724900
      7 CAH          8.0590    -2.2070    -0.3440 ca         1 816      -0.091000
      8 CAJ          9.1560    -1.4750     0.0740 ca         1 816      -0.243300
      9 CAK          6.7900    -1.6580    -0.2350 ca         1 816      -0.219300
     10 CAL          1.3380     1.5630     0.4450 ca         1 816      -0.084000
     11 CAM          2.6780     1.2040     0.4640 ca         1 816      -0.219000
     12 CAN          0.7400    -0.6410    -0.2780 ca         1 816      -0.056000
     13 CAO         -5.5100    -1.2330     2.6750 c6         1 816      -0.101400
     14 CAQ         -6.9940    -1.2870    -1.6630 ce         1 816      -0.245200
     15 CAR         -4.3000    -0.3780     2.3120 c6         1 816      -0.087400
     16 CAS         -5.6590    -2.3980     1.7050 c6         1 816       0.085000
     17 CAV         -4.5600    -1.1830    -0.0700 c6         1 816       0.088000
     18 CBD          8.9520    -0.2010     0.6000 ca         1 816       0.427600
     19 CBF          2.0710    -0.9990    -0.2560 ca         1 816      -0.018600
     20 CBG          6.6830    -0.3800     0.2960 ca         1 816       0.411600
     21 CBH          0.3540     0.6550     0.0660 ca         1 816      -0.134900
     22 CBI          3.0660    -0.0850     0.1110 ca         1 816       0.167100
     23 CBJ         -1.0670     1.0120     0.0700 cc         1 816       0.441500
     24 CBN         -4.3540     0.0330     0.8440 c6         1 816       0.051000
     25 NAB         -0.2060     3.7480    -1.4580 nv         1 816      -0.955500
     26 NAY          7.7340     0.3230     0.7010 nb         1 816      -0.691000
     27 NAZ         -1.9540     0.1700     0.5470 nd         1 816      -0.524100
     28 NBO         -5.7470    -1.9060     0.3370 n          1 816      -0.466800
     29 NBP         -3.1600     0.7450     0.4410 na         1 816       0.010200
     30 OAE         -7.9830    -2.2120     0.2680 o          1 816      -0.601100
     31 OBA          4.3240    -0.5310     0.0960 os         1 816      -0.308900
     32 H1          -4.4300     4.6600    -1.1540 h5         1 816       0.048100
     33 H2          10.1080     0.6450     2.1880 hc         1 816       0.051700
     34 H3          11.0530     0.2400     0.7590 hc         1 816       0.051700
     35 H4          10.0020     1.6630     0.7610 hc         1 816       0.051700
     36 H5           8.1890    -3.1990    -0.7570 ha         1 816       0.139000
     37 H6          10.1560    -1.8780    -0.0060 ha         1 816       0.142000
     38 H7           5.9190    -2.2120    -0.5560 ha         1 816       0.162000
     39 H8           1.0660     2.5620     0.7630 ha         1 816       0.143000
     40 H9           3.4100     1.9390     0.7690 ha         1 816       0.144000
     41 H10         -0.0040    -1.3690    -0.5720 ha         1 816       0.161000
     42 H11         -5.4020    -1.6160     3.6910 hc         1 816       0.056200
     43 H12         -6.4210    -0.6290     2.6570 hc         1 816       0.056200
     44 H13         -9.0500    -0.7990    -1.6170 ha         1 816       0.124500
     45 H14         -8.1600    -0.4450    -3.1930 ha         1 816       0.124500
     46 H16         -6.0990    -1.2890    -2.2710 ha         1 816       0.132000
     47 H18         -4.2570     0.5130     2.9410 hc         1 816       0.060200
     48 H19         -3.3830    -0.9450     2.4940 hc         1 816       0.060200
     49 H20         -4.7830    -3.0500     1.7680 h1         1 816       0.065700
     50 H21         -6.5340    -2.9980     1.9350 h1         1 816       0.065700
     51 H22          5.2650     0.6840     1.4840 h1         1 816       0.058700
     52 H23          5.3730     1.2310    -0.1930 h1         1 816       0.058700
     53 H24         -4.6230    -0.8540    -1.1040 h1         1 816       0.066200
     54 H25         -3.6970    -1.8500     0.0060 h1         1 816       0.066200
     55 H26         -5.1830     0.7270     0.6890 h1         1 816       0.092700
     56 H27          0.5540     3.0910    -1.4540 hn         1 816       0.447300
     57 H28         -0.0920     4.5830    -2.0090 hn         1 816       0.447300
     58 CBC         -6.9550    -1.8270    -0.2750 c          1 816       0.671300
     59 CLA          2.5380    -2.6020    -0.6980 cl         1 816      -0.088400
     60 CAT          5.3730     0.3420     0.4500 c3         1 816       0.089100
     61 CAA         10.0950     0.6300     1.0970 c3         1 816      -0.144400
     62 CAP         -8.1270    -0.8240    -2.1800 c2         1 816      -0.136000
@<TRIPOS>BOND
     1     1     2 ar  
     2     1     5 ar  
     3     1    29 1   
     4     2     3 ar  
     5     2    23 1   
     6     3     4 ar  
     7     3    25 1   
     8     4     6 ar  
     9     5     6 ar  
    10     6    32 1   
    11     7     8 ar  
    12     7     9 ar  
    13     7    36 1   
    14     8    18 ar  
    15     8    37 1   
    16     9    20 ar  
    17     9    38 1   
    18    10    11 ar  
    19    10    21 ar  
    20    10    39 1   
    21    11    22 ar  
    22    11    40 1   
    23    12    19 ar  
    24    12    21 ar  
    25    12    41 1   
    26    13    15 1   
    27    13    16 1   
    28    13    42 1   
    29    13    43 1   
    30    14    46 1   
    31    14    58 1   
    32    14    62 2   
    33    15    24 1   
    34    15    47 1   
    35    15    48 1   
    36    16    28 1   
    37    16    49 1   
    38    16    50 1   
    39    17    24 1   
    40    17    28 1   
    41    17    53 1   
    42    17    54 1   
    43    18    26 ar  
    44    18    61 1   
    45    19    22 ar  
    46    19    59 1   
    47    20    26 ar  
    48    20    60 1   
    49    21    23 1   
    50    22    31 1   
    51    23    27 2   
    52    24    29 1   
    53    24    55 1   
    54    25    56 1   
    55    25    57 1   
    56    27    29 1   
    57    28    58 1   
    58    30    58 2   
    59    31    60 1   
    60    33    61 1   
    61    34    61 1   
    62    35    61 1   
    63    44    62 1   
    64    45    62 1   
    65    51    60 1   
    66    52    60 1   
@<TRIPOS>SUBSTRUCTURE
     1 816         1 TEMP              0 ****  ****    0 ROOT
