@<TRIPOS>MOLECULE
816
   62    66     1     0     0
SMALL
No Charge or Current Charge


@<TRIPOS>ATOM
      1 C4          -3.0710     2.2370     0.0930 ca         1 816       0.161500
      2 C5          -1.7540     2.3580    -0.2530 ca         1 816      -0.381900
      3 C6          -1.3300     3.5020    -0.9230 ca         1 816       0.456900
      4 N1          -2.1870     4.5010    -1.1750 nb         1 816      -0.311000
      5 N3          -3.9620     3.2180    -0.1460 nb         1 816      -0.233000
      6 C2          -3.4640     4.3170    -0.7600 ca         1 816       0.198900
      7 CAH          8.3990    -1.1220    -1.5350 ca         1 816      -0.073000
      8 CAJ          9.2440    -1.2840    -0.4260 ca         1 816      -0.160000
      9 CAK          7.1560    -0.5010    -1.3320 ca         1 816      -0.136000
     10 CAL          1.2860     1.6890     0.4800 ca         1 816      -0.066000
     11 CAM          2.6500     1.3570     0.4080 ca         1 816      -0.201000
     12 CAN          0.7070    -0.4540    -0.5060 ca         1 816      -0.038000
     13 CAO         -5.7890    -0.5420     2.9920 c6         1 816      -0.101400
     14 CAQ         -6.4690    -2.4870    -1.6770 ce         1 816      -0.295200
     15 CAR         -4.4000    -0.0470     2.5590 c6         1 816      -0.087400
     16 CAS         -6.2650    -1.7300     2.1260 c6         1 816       0.085000
     17 CAV         -4.9350    -0.7690     0.1670 c6         1 816       0.088000
     18 CBD          8.8220    -0.8210     0.8340 ca         1 816       0.362300
     19 CBF          2.0680    -0.7910    -0.5800 ca         1 816       0.073000
     20 CBG          6.8010    -0.0690    -0.0390 ca         1 816       0.346300
     21 CBH          0.3040     0.8010    -0.0050 ca         1 816      -0.134900
     22 CBI          3.0520     0.1140    -0.1300 ca         1 816       0.167100
     23 CBJ         -1.1210     1.1150     0.1210 cc         1 816       0.441500
     24 CBN         -4.4780     0.3940     1.0860 c6         1 816       0.080300
     25 NAB         -0.0830     3.6750    -1.4070 nv         1 816      -1.065900
     26 NAY          7.6240    -0.2250     1.0300 nb         1 816      -0.691000
     27 NAZ         -1.9990     0.2380     0.6200 nd         1 816      -0.524100
     28 NBO         -6.1150    -1.5650     0.6440 n          1 816      -0.399800
     29 NBP         -3.1880     0.9620     0.6180 na         1 816      -0.019100
     30 OAE         -7.7240    -3.1450     0.2140 o          1 816      -0.601100
     31 OBA          4.3830    -0.2520    -0.2190 os         1 816      -0.332100
     32 H1          -4.1660     5.1250    -0.9610 h5         1 816       0.048100
     33 H2           9.3840    -1.8430     2.6550 hc         1 816       0.051700
     34 H3          10.7490    -1.1230     1.7850 hc         1 816       0.051700
     35 H4           9.6460    -0.0900     2.7040 hc         1 816       0.051700
     36 H5           8.6970    -1.4680    -2.5220 ha         1 816       0.121000
     37 H6          10.2130    -1.7610    -0.5390 ha         1 816       0.124000
     38 H7           6.4700    -0.3570    -2.1630 ha         1 816       0.144000
     39 H8           0.9900     2.6370     0.9270 ha         1 816       0.125000
     40 H9           3.3770     2.0710     0.7830 ha         1 816       0.126000
     41 H10         -0.0390    -1.1680    -0.8480 ha         1 816       0.143000
     42 H11         -5.7710    -0.8390     4.0500 hc         1 816       0.056200
     43 H12         -6.5150     0.2800     2.9140 hc         1 816       0.056200
     44 H13         -8.3420    -3.2340    -2.4110 ha         1 816       0.174500
     45 H14         -7.0660    -2.8560    -3.7020 ha         1 816       0.174500
     46 H16         -5.4930    -2.1090    -1.9710 ha         1 816       0.182000
     47 H18         -4.0860     0.7950     3.1910 hc         1 816       0.060200
     48 H19         -3.6540    -0.8440     2.6880 hc         1 816       0.060200
     49 H20         -5.7000    -2.6260     2.4230 h1         1 816       0.065700
     50 H21         -7.3190    -1.9280     2.3710 h1         1 816       0.065700
     51 H22          5.3550     0.8480     1.2770 h1         1 816       0.058700
     52 H23          5.4350     1.5570    -0.3510 h1         1 816       0.058700
     53 H24         -5.1630    -0.3280    -0.8130 h1         1 816       0.066200
     54 H25         -4.0950    -1.4630     0.0270 h1         1 816       0.066200
     55 H26         -5.2410     1.1830     1.0180 h1         1 816       0.092700
     56 H27          0.5220     2.8640    -1.4810 hn         1 816       0.502500
     57 H28          0.0700     4.4240    -2.0770 hn         1 816       0.502500
     58 CBC         -6.8070    -2.4560    -0.2150 c          1 816       0.604300
     59 ClA          2.5250    -2.3640    -1.2390 cl         1 816      -0.180000
     60 CAT          5.4550     0.6140     0.2090 c3         1 816       0.112300
     61 CAA          9.6980    -0.9770     2.0620 c3         1 816      -0.144400
     62 CAP         -7.3360    -2.8790    -2.6440 c2         1 816      -0.236000
@<TRIPOS>BOND
     1     1     2 ar  
     2     1     5 ar  
     3     1    29 1   
     4     2     3 ar  
     5     2    23 1   
     6     3     4 ar  
     7     3    25 1   
     8     4     6 ar  
     9     5     6 ar  
    10     6    32 1   
    11     7     8 ar  
    12     7     9 ar  
    13     7    36 1   
    14     8    18 ar  
    15     8    37 1   
    16     9    20 ar  
    17     9    38 1   
    18    10    11 ar  
    19    10    21 ar  
    20    10    39 1   
    21    11    22 ar  
    22    11    40 1   
    23    12    19 ar  
    24    12    21 ar  
    25    12    41 1   
    26    13    15 1   
    27    13    16 1   
    28    13    42 1   
    29    13    43 1   
    30    14    46 1   
    31    14    58 1   
    32    14    62 2   
    33    15    24 1   
    34    15    47 1   
    35    15    48 1   
    36    16    28 1   
    37    16    49 1   
    38    16    50 1   
    39    17    24 1   
    40    17    28 1   
    41    17    53 1   
    42    17    54 1   
    43    18    26 ar  
    44    18    61 1   
    45    19    22 ar  
    46    19    59 1   
    47    20    26 ar  
    48    20    60 1   
    49    21    23 1   
    50    22    31 1   
    51    23    27 2   
    52    24    29 1   
    53    24    55 1   
    54    25    56 1   
    55    25    57 1   
    56    27    29 1   
    57    28    58 1   
    58    30    58 2   
    59    31    60 1   
    60    33    61 1   
    61    34    61 1   
    62    35    61 1   
    63    44    62 1   
    64    45    62 1   
    65    51    60 1   
    66    52    60 1   
@<TRIPOS>SUBSTRUCTURE
     1 816         1 TEMP              0 ****  ****    0 ROOT
