@<TRIPOS>MOLECULE
817
   29    29     1     0     0
SMALL
No Charge or Current Charge


@<TRIPOS>ATOM
      1 N1           6.2910     0.1000     0.7830 n2         1 817      -0.901100
      2 C2           3.2850    -0.4790     0.4900 c2         1 817       0.721100
      3 N2           5.3770     1.7850    -0.2590 nv         1 817      -1.045200
      4 N3           4.3390     0.1080    -0.0990 nu         1 817      -0.910400
      5 C4          -0.8620    -1.1930     0.2070 ca         1 817      -0.091300
      6 C6          -2.6390    -2.1590    -1.1490 ca         1 817      -0.116000
      7 C7          -3.4730    -1.0710    -0.8430 ca         1 817      -0.047000
      8 C10         -1.6990    -0.1010     0.5100 ca         1 817      -0.041000
      9 C1           5.2760     0.7480     0.5100 c2         1 817       0.839100
     10 N4           3.4810    -1.1660     1.5360 n2         1 817      -0.865100
     11 S1           1.7170    -0.3240    -0.3250 ss         1 817      -0.393200
     12 C3           0.5510    -1.2540     0.7700 c3         1 817       0.112900
     13 C5          -1.3380    -2.2220    -0.6260 ca         1 817      -0.061000
     14 C8          -3.0130    -0.0330    -0.0030 ca         1 817      -0.197300
     15 F1          -5.2270     0.8540     0.2740 f          1 817      -0.112000
     16 F2          -3.6780     1.6550     1.5640 f          1 817      -0.112000
     17 F3          -3.7110     2.1800    -0.5460 f          1 817      -0.112000
     18 HN1          5.9320    -0.8530     0.9120 hn         1 817       0.384400
     19 HN21         6.3540     1.8480    -0.5100 hn         1 817       0.500500
     20 HN22         5.0950     2.6200     0.2380 hn         1 817       0.500500
     21 HN3          4.0730     0.6770    -0.8810 hn         1 817       0.507000
     22 H6          -3.0020    -2.9540    -1.7970 ha         1 817       0.126000
     23 H7          -4.4760    -1.0380    -1.2650 ha         1 817       0.135000
     24 H10         -1.3200     0.6980     1.1450 ha         1 817       0.133000
     25 HN4          2.5870    -1.5730     1.8280 hn         1 817       0.410400
     26 H31          0.8740    -2.3010     0.8450 h1         1 817       0.075700
     27 H32          0.5640    -0.8140     1.7760 h1         1 817       0.075700
     28 H5          -0.6990    -3.0680    -0.8720 ha         1 817       0.124000
     29 C9          -3.9110     1.1650     0.3240 c3         1 817       0.357300
@<TRIPOS>BOND
     1     1     9 2   
     2     1    18 1   
     3     2     4 1   
     4     2    10 2   
     5     2    11 1   
     6     3     9 1   
     7     3    19 1   
     8     3    20 1   
     9     4     9 1   
    10     4    21 1   
    11     5     8 ar  
    12     5    12 1   
    13     5    13 ar  
    14     6     7 ar  
    15     6    13 ar  
    16     6    22 1   
    17     7    14 ar  
    18     7    23 1   
    19     8    14 ar  
    20     8    24 1   
    21    10    25 1   
    22    11    12 1   
    23    12    26 1   
    24    12    27 1   
    25    13    28 1   
    26    14    29 1   
    27    15    29 1   
    28    16    29 1   
    29    17    29 1   
@<TRIPOS>SUBSTRUCTURE
     1 817         1 TEMP              0 ****  ****    0 ROOT
