@<TRIPOS>MOLECULE
817
   29    29     1     0     0
SMALL
bcc


@<TRIPOS>ATOM
      1 N1           6.2730     0.5690    -1.2990 n2         1 817      -0.901100
      2 C2           3.1350    -0.0030     0.4690 c2         1 817       0.721100
      3 N2           5.8790     0.7190     0.9610 nv         1 817      -0.934800
      4 N3           4.1010     0.2300    -0.4790 nu         1 817      -0.855200
      5 C4          -0.8710    -0.9510     0.4470 ca         1 817      -0.091300
      6 C6          -2.4300    -2.3730    -0.7180 ca         1 817      -0.134000
      7 C7          -3.4000    -1.3820    -0.6510 ca         1 817      -0.065000
      8 C10         -1.8380     0.0420     0.5080 ca         1 817      -0.059000
      9 C1           5.4660     0.4920    -0.3090 c2         1 817       0.839100
     10 N4           3.3920    -0.1530     1.7000 n2         1 817      -0.865100
     11 S1           1.5350    -0.0490    -0.3110 ss         1 817      -0.345300
     12 C3           0.4930    -0.7160     1.0240 c3         1 817       0.065000
     13 C5          -1.1730    -2.1590    -0.1770 ca         1 817      -0.079000
     14 C8          -3.1000    -0.1740    -0.0370 ca         1 817      -0.197300
     15 F1          -5.3270     0.5440    -0.3420 f          1 817      -0.233300
     16 F2          -4.2160     1.4210     1.2800 f          1 817      -0.233300
     17 F3          -3.7620     1.9630    -0.7490 f          1 817      -0.233300
     18 HN1          5.8020     0.4280    -2.1840 hn         1 817       0.384400
     19 HN21         6.8750     0.7080     1.0980 hn         1 817       0.445300
     20 HN22         5.3020     0.3720     1.7150 hn         1 817       0.445300
     21 HN3          3.8200     0.1350    -1.4430 hn         1 817       0.451800
     22 H6          -2.6610    -3.3160    -1.1940 ha         1 817       0.144000
     23 H7          -4.3760    -1.5670    -1.0770 ha         1 817       0.153000
     24 H10         -1.5980     0.9830     0.9890 ha         1 817       0.151000
     25 HN4          2.5760    -0.2720     2.2840 hn         1 817       0.410400
     26 H31          0.9310    -1.6470     1.3830 h1         1 817       0.075700
     27 H32          0.4490    -0.0020     1.8460 h1         1 817       0.075700
     28 H5          -0.4230    -2.9380    -0.2330 ha         1 817       0.142000
     29 C9          -4.1060     0.9310     0.0360 c3         1 817       0.721200
@<TRIPOS>BOND
     1     1     9 2   
     2     1    18 1   
     3     2     4 1   
     4     2    10 2   
     5     2    11 1   
     6     3     9 1   
     7     3    19 1   
     8     3    20 1   
     9     4     9 1   
    10     4    21 1   
    11     5     8 ar  
    12     5    12 1   
    13     5    13 ar  
    14     6     7 ar  
    15     6    13 ar  
    16     6    22 1   
    17     7    14 ar  
    18     7    23 1   
    19     8    14 ar  
    20     8    24 1   
    21    10    25 1   
    22    11    12 1   
    23    12    26 1   
    24    12    27 1   
    25    13    28 1   
    26    14    29 1   
    27    15    29 1   
    28    16    29 1   
    29    17    29 1   
@<TRIPOS>SUBSTRUCTURE
     1 817         1 TEMP              0 ****  ****    0 ROOT
