@<TRIPOS>MOLECULE
81A
   57    59     1     0     0
SMALL
No Charge or Current Charge


@<TRIPOS>ATOM
      1 S            0.3430     0.0170    -5.3860 sy         1 81A       1.029500
      2 O4           1.2360    -0.6820    -6.3200 o          1 81A      -0.503500
      3 O5          -0.3860     1.2090    -5.8350 o          1 81A      -0.503500
      4 C16         -0.8870    -1.1960    -4.8950 c3         1 81A      -0.332100
      5 C26          0.7640     0.9790    -2.6330 ca         1 81A      -0.205500
      6 C25          1.6600     1.2300    -1.5610 ca         1 81A      -0.039000
      7 C24          3.0300     0.9630    -1.6700 ca         1 81A      -0.082000
      8 C23          3.5440     0.4340    -2.8540 ca         1 81A      -0.074000
      9 C28          2.6890     0.1710    -3.9320 ca         1 81A      -0.056000
     10 C27          1.2940     0.4270    -3.8610 ca         1 81A      -0.143500
     11 C2           0.8770    -2.3810     0.0590 ca         1 81A      -0.034300
     12 C2A          2.0340    -3.3300    -0.2090 c3         1 81A      -0.048800
     13 C6          -0.8420    -0.8670    -0.7690 ca         1 81A       0.139100
     14 C1           0.2130    -1.7600    -1.0130 ca         1 81A      -0.159000
     15 C3           0.4570    -2.1150     1.3750 ca         1 81A      -0.131000
     16 C5          -1.2660    -0.6110     0.5430 ca         1 81A      -0.215000
     17 C4          -0.6110    -1.2370     1.6240 ca         1 81A       0.170100
     18 O8          -1.4710    -0.2600    -1.8210 os         1 81A      -0.449800
     19 O21         -1.7570     1.6700    -3.4670 o          1 81A      -0.515000
     20 O22         -1.0940     2.1480    -1.0450 o          1 81A      -0.515000
     21 O7          -0.9750    -1.0240     2.9370 os         1 81A      -0.314100
     22 C10         -2.0270    -0.1150     3.3030 c3         1 81A       0.196600
     23 C14         -2.1610    -0.1260     4.8300 cx         1 81A      -0.126000
     24 CEA         -3.5470    -0.2500     5.4370 cx         1 81A      -0.110900
     25 CEB         -2.5780    -1.4040     5.5330 cx         1 81A      -0.110900
     26 C15         -1.1510     0.8110     5.5040 c3         1 81A       0.194600
     27 O16          0.1700     0.2490     5.3610 os         1 81A      -0.194300
     28 N10          1.1710     1.0600     6.0120 nu         1 81A      -0.646900
     29 C17          1.8650     1.9190     5.2270 c2         1 81A       0.750100
     30 N11          1.4760     2.3820     4.1280 n2         1 81A      -0.829100
     31 N12          2.9790     2.2480     5.8630 nv         1 81A      -1.068200
     32 H161        -1.3230    -1.6120    -5.8090 h1         1 81A       0.111367
     33 H162        -0.3860    -1.9820    -4.3210 h1         1 81A       0.111367
     34 H163        -1.6680    -0.7150    -4.3040 h1         1 81A       0.111367
     35 H25          1.2990     1.6240    -0.6130 ha         1 81A       0.147000
     36 H24          3.6920     1.1620    -0.8300 ha         1 81A       0.126000
     37 H23          4.6080     0.2260    -2.9400 ha         1 81A       0.124000
     38 H28          3.1360    -0.2370    -4.8360 ha         1 81A       0.153000
     39 H21A         1.6670    -4.3340    -0.4510 hc         1 81A       0.046367
     40 H22A         2.6440    -2.9830    -1.0510 hc         1 81A       0.046367
     41 H23A         2.6950    -3.4160     0.6620 hc         1 81A       0.046367
     42 H1           0.5250    -1.9580    -2.0340 ha         1 81A       0.123000
     43 H3           0.9570    -2.5910     2.2150 ha         1 81A       0.157000
     44 H5          -2.0950     0.0720     0.7010 ha         1 81A       0.142000
     45 H101        -1.8070     0.9020     2.9530 h1         1 81A       0.041700
     46 H102        -2.9740    -0.4350     2.8490 h1         1 81A       0.041700
     47 H141        -4.3960    -0.3610     4.7670 hc         1 81A       0.077950
     48 H142        -3.7620     0.3050     6.3470 hc         1 81A       0.077950
     49 H143        -2.7730    -2.2820     4.9220 hc         1 81A       0.077950
     50 H144        -2.1380    -1.6180     6.5050 hc         1 81A       0.077950
     51 H151        -1.2060     1.8060     5.0430 h1         1 81A       0.037700
     52 H152        -1.4020     0.9190     6.5670 h1         1 81A       0.037700
     53 HE           1.8060     0.4400     6.5060 hn         1 81A       0.460000
     54 HH12         2.1980     3.0160     3.7740 hn         1 81A       0.372400
     55 HH21         3.4590     3.0380     5.4520 hn         1 81A       0.455500
     56 HH22         2.8470     2.3340     6.8620 hn         1 81A       0.455500
     57 S20         -1.0040     1.3230    -2.2580 sy         1 81A       1.267200
@<TRIPOS>BOND
     1     1     2 2   
     2     1     3 2   
     3     1     4 1   
     4     1    10 1   
     5     4    32 1   
     6     4    33 1   
     7     4    34 1   
     8     5     6 ar  
     9     5    10 ar  
    10     5    57 1   
    11     6     7 ar  
    12     6    35 1   
    13     7     8 ar  
    14     7    36 1   
    15     8     9 ar  
    16     8    37 1   
    17     9    10 ar  
    18     9    38 1   
    19    11    12 1   
    20    11    14 ar  
    21    11    15 ar  
    22    12    39 1   
    23    12    40 1   
    24    12    41 1   
    25    13    14 ar  
    26    13    16 ar  
    27    13    18 1   
    28    14    42 1   
    29    15    17 ar  
    30    15    43 1   
    31    16    17 ar  
    32    16    44 1   
    33    17    21 1   
    34    18    57 1   
    35    19    57 2   
    36    20    57 2   
    37    21    22 1   
    38    22    23 1   
    39    22    45 1   
    40    22    46 1   
    41    23    24 1   
    42    23    25 1   
    43    23    26 1   
    44    24    25 1   
    45    24    47 1   
    46    24    48 1   
    47    25    49 1   
    48    25    50 1   
    49    26    27 1   
    50    26    51 1   
    51    26    52 1   
    52    27    28 1   
    53    28    29 1   
    54    28    53 1   
    55    29    30 2   
    56    29    31 1   
    57    30    54 1   
    58    31    55 1   
    59    31    56 1   
@<TRIPOS>SUBSTRUCTURE
     1 81A         1 TEMP              0 ****  ****    0 ROOT
