@<TRIPOS>MOLECULE
81A
   57    59     1     0     0
SMALL
abcg2


@<TRIPOS>ATOM
      1 S            0.1840    -0.3440    -5.4240 sy         1 81A       1.029500
      2 O4           1.3290    -0.6880    -6.2630 o          1 81A      -0.503500
      3 O5          -0.8140     0.5550    -5.9820 o          1 81A      -0.503500
      4 C16         -0.5400    -1.8860    -4.9190 c3         1 81A      -0.332100
      5 C26          0.1710     0.9590    -2.8450 ca         1 81A      -0.205500
      6 C25          0.8490     1.6570    -1.8560 ca         1 81A      -0.039000
      7 C24          2.2240     1.8330    -1.9310 ca         1 81A      -0.082000
      8 C23          2.9240     1.2930    -2.9890 ca         1 81A      -0.074000
      9 C28          2.2500     0.6010    -3.9880 ca         1 81A      -0.056000
     10 C27          0.8760     0.4240    -3.9360 ca         1 81A      -0.143500
     11 C2           1.3580    -1.7980     0.3020 ca         1 81A      -0.034300
     12 C2A          2.7400    -2.3640     0.1640 c3         1 81A      -0.048800
     13 C6          -0.6820    -1.0460    -0.6900 ca         1 81A       0.139100
     14 C1           0.5830    -1.5720    -0.8380 ca         1 81A      -0.159000
     15 C3           0.8350    -1.4870     1.5460 ca         1 81A      -0.131000
     16 C5          -1.2340    -0.7380     0.5440 ca         1 81A      -0.215000
     17 C4          -0.4600    -0.9760     1.6760 ca         1 81A       0.170100
     18 O8          -1.4460    -0.8440    -1.8360 os         1 81A      -0.449800
     19 O21         -2.3410     0.4480    -3.6530 o          1 81A      -0.515000
     20 O22         -1.9650     1.5790    -1.4580 o          1 81A      -0.515000
     21 O7          -0.8830    -0.7490     2.9280 os         1 81A      -0.314100
     22 C10         -2.0330     0.0520     3.1260 c3         1 81A       0.196600
     23 C14         -2.1730     0.3370     4.5930 cx         1 81A      -0.126000
     24 CEA         -3.5580     0.7110     5.0420 cx         1 81A      -0.110900
     25 CEB         -2.9840    -0.6150     5.4240 cx         1 81A      -0.110900
     26 C15         -1.0140     1.0280     5.2590 c3         1 81A       0.194600
     27 O16         -0.0420     0.0520     5.6050 os         1 81A      -0.194300
     28 N10          1.0310     0.6570     6.2200 nu         1 81A      -0.646900
     29 C17          2.2640     0.3840     5.6360 c2         1 81A       0.750100
     30 N11          2.3590    -0.1090     4.4650 n2         1 81A      -0.829100
     31 N12          3.2950     0.7090     6.4910 nv         1 81A      -1.068200
     32 H161        -0.8010    -2.4060    -5.8400 h1         1 81A       0.111367
     33 H162         0.2080    -2.4590    -4.3740 h1         1 81A       0.111367
     34 H163        -1.4310    -1.7380    -4.3220 h1         1 81A       0.111367
     35 H25          0.3150     2.0620    -1.0090 ha         1 81A       0.147000
     36 H24          2.7330     2.3820    -1.1510 ha         1 81A       0.126000
     37 H23          3.9970     1.4080    -3.0550 ha         1 81A       0.124000
     38 H28          2.8130     0.2000    -4.8180 ha         1 81A       0.153000
     39 H21A         2.7020    -3.4170    -0.1200 hc         1 81A       0.046367
     40 H22A         3.3050    -1.8430    -0.6100 hc         1 81A       0.046367
     41 H23A         3.2980    -2.2930     1.0960 hc         1 81A       0.046367
     42 H1           0.9690    -1.8050    -1.8230 ha         1 81A       0.123000
     43 H3           1.4280    -1.6060     2.4460 ha         1 81A       0.157000
     44 H5          -2.2390    -0.3460     0.6050 ha         1 81A       0.142000
     45 H101        -1.9320     0.9910     2.5670 h1         1 81A       0.041700
     46 H102        -2.9320    -0.4560     2.7580 h1         1 81A       0.041700
     47 H141        -4.3410     0.7380     4.2950 hc         1 81A       0.077950
     48 H142        -3.6540     1.4730     5.8050 hc         1 81A       0.077950
     49 H143        -3.3730    -1.5010     4.9390 hc         1 81A       0.077950
     50 H144        -2.6880    -0.7680     6.4540 hc         1 81A       0.077950
     51 H151        -0.5800     1.7840     4.5950 h1         1 81A       0.037700
     52 H152        -1.3610     1.5430     6.1630 h1         1 81A       0.037700
     53 HE           1.0040     0.4550     7.2140 hn         1 81A       0.460000
     54 HH12         3.3330    -0.1610     4.1870 hn         1 81A       0.372400
     55 HH21         4.1980     0.8020     6.0550 hn         1 81A       0.455500
     56 HH22         3.1170     1.4550     7.1470 hn         1 81A       0.455500
     57 S20         -1.5400     0.6460    -2.4740 sy         1 81A       1.267200
@<TRIPOS>BOND
     1     1     2 2   
     2     1     3 2   
     3     1     4 1   
     4     1    10 1   
     5     4    32 1   
     6     4    33 1   
     7     4    34 1   
     8     5     6 ar  
     9     5    10 ar  
    10     5    57 1   
    11     6     7 ar  
    12     6    35 1   
    13     7     8 ar  
    14     7    36 1   
    15     8     9 ar  
    16     8    37 1   
    17     9    10 ar  
    18     9    38 1   
    19    11    12 1   
    20    11    14 ar  
    21    11    15 ar  
    22    12    39 1   
    23    12    40 1   
    24    12    41 1   
    25    13    14 ar  
    26    13    16 ar  
    27    13    18 1   
    28    14    42 1   
    29    15    17 ar  
    30    15    43 1   
    31    16    17 ar  
    32    16    44 1   
    33    17    21 1   
    34    18    57 1   
    35    19    57 2   
    36    20    57 2   
    37    21    22 1   
    38    22    23 1   
    39    22    45 1   
    40    22    46 1   
    41    23    24 1   
    42    23    25 1   
    43    23    26 1   
    44    24    25 1   
    45    24    47 1   
    46    24    48 1   
    47    25    49 1   
    48    25    50 1   
    49    26    27 1   
    50    26    51 1   
    51    26    52 1   
    52    27    28 1   
    53    28    29 1   
    54    28    53 1   
    55    29    30 2   
    56    29    31 1   
    57    30    54 1   
    58    31    55 1   
    59    31    56 1   
@<TRIPOS>SUBSTRUCTURE
     1 81A         1 TEMP              0 ****  ****    0 ROOT
