@<TRIPOS>MOLECULE
81B
   21    21     1     0     0
SMALL
bcc


@<TRIPOS>ATOM
      1 C02         -2.5820    -0.1770     0.1370 c          1 81B       0.875600
      2 C03         -1.2020     0.5020     0.3890 c          1 81B       0.511100
      3 C05          1.2200     0.0750     0.3300 c5         1 81B       0.111700
      4 C06          1.8370     0.6960    -0.9250 c5         1 81B      -0.097900
      5 C07          3.3370     0.6520    -0.6310 c5         1 81B      -0.078400
      6 C08          3.5480    -0.6040     0.2500 c5         1 81B      -0.078400
      7 C09          2.1420    -1.1110     0.6100 c5         1 81B      -0.097900
      8 N04         -0.1600    -0.3170     0.2040 ns         1 81B      -0.574900
      9 O01         -2.5440    -1.3580    -0.2590 o          1 81B      -0.804800
     10 O10         -1.0990     1.6720     0.7320 o          1 81B      -0.649100
     11 O11         -3.5710     0.5330     0.3540 o          1 81B      -0.804800
     12 H1           1.2980     0.7940     1.1500 h1         1 81B       0.060700
     13 H2           1.5900     0.0710    -1.7890 hc         1 81B       0.045450
     14 H3           1.4640     1.7010    -1.1270 hc         1 81B       0.045450
     15 H4           3.9390     0.6300    -1.5400 hc         1 81B       0.027950
     16 H5           3.6330     1.5490    -0.0830 hc         1 81B       0.027950
     17 H6           4.1190    -1.3710    -0.2720 hc         1 81B       0.027950
     18 H7           4.1120    -0.3500     1.1480 hc         1 81B       0.027950
     19 H8           2.0660    -1.4670     1.6380 hc         1 81B       0.045450
     20 H9           1.8580    -1.9440    -0.0410 hc         1 81B       0.045450
     21 H10         -0.3820    -1.2440    -0.1260 hn         1 81B       0.333500
@<TRIPOS>BOND
     1     1     2 1   
     2     1     9 1   
     3     1    11 1   
     4     2     8 1   
     5     2    10 2   
     6     3     4 1   
     7     3     7 1   
     8     3     8 1   
     9     3    12 1   
    10     4     5 1   
    11     4    13 1   
    12     4    14 1   
    13     5     6 1   
    14     5    15 1   
    15     5    16 1   
    16     6     7 1   
    17     6    17 1   
    18     6    18 1   
    19     7    19 1   
    20     7    20 1   
    21     8    21 1   
@<TRIPOS>SUBSTRUCTURE
     1 81B         1 TEMP              0 ****  ****    0 ROOT
