@<TRIPOS>MOLECULE
81B
   21    21     1     0     0
SMALL
No Charge or Current Charge


@<TRIPOS>ATOM
      1 C02         -2.6270    -0.1410     0.0850 c          1 81B       0.665000
      2 C03         -1.1570     0.5110     0.4080 c          1 81B       0.444100
      3 C05          1.2760     0.1100     0.4630 c5         1 81B       0.111700
      4 C06          1.7730     0.6900    -0.8830 c5         1 81B      -0.097900
      5 C07          3.3180     0.6320    -0.6920 c5         1 81B      -0.078400
      6 C08          3.5610    -0.5480     0.3100 c5         1 81B      -0.078400
      7 C09          2.1510    -1.1600     0.5470 c5         1 81B      -0.097900
      8 N04         -0.0900    -0.3690     0.2290 ns         1 81B      -0.507900
      9 O01         -2.6770    -1.3160    -0.2760 o          1 81B      -0.699500
     10 O10         -0.9900     1.6760     0.7810 o          1 81B      -0.649100
     11 O11         -3.6300     0.5610     0.2140 o          1 81B      -0.699500
     12 H1           1.4010     0.7880     1.3210 h1         1 81B       0.060700
     13 H2           1.4640     0.0760    -1.7390 hc         1 81B       0.045450
     14 H3           1.4110     1.7080    -1.0640 hc         1 81B       0.045450
     15 H4           3.8330     0.4740    -1.6460 hc         1 81B       0.027950
     16 H5           3.6990     1.5730    -0.2780 hc         1 81B       0.027950
     17 H6           4.2640    -1.2890    -0.0860 hc         1 81B       0.027950
     18 H7           3.9870    -0.1750     1.2490 hc         1 81B       0.027950
     19 H8           2.0710    -1.6660     1.5160 hc         1 81B       0.045450
     20 H9           1.9060    -1.8940    -0.2310 hc         1 81B       0.045450
     21 H10         -0.3210    -1.3090    -0.0770 hn         1 81B       0.333500
@<TRIPOS>BOND
     1     1     2 1   
     2     1     9 1   
     3     1    11 1   
     4     2     8 1   
     5     2    10 2   
     6     3     4 1   
     7     3     7 1   
     8     3     8 1   
     9     3    12 1   
    10     4     5 1   
    11     4    13 1   
    12     4    14 1   
    13     5     6 1   
    14     5    15 1   
    15     5    16 1   
    16     6     7 1   
    17     6    17 1   
    18     6    18 1   
    19     7    19 1   
    20     7    20 1   
    21     8    21 1   
@<TRIPOS>SUBSTRUCTURE
     1 81B         1 TEMP              0 ****  ****    0 ROOT
