@<TRIPOS>MOLECULE
81C
   78    81     1     0     0
SMALL
No Charge or Current Charge


@<TRIPOS>ATOM
      1 C4           3.1870     0.4630     1.2340 ca         1 81C       0.435900
      2 C5           2.9960     1.8430     1.4290 ca         1 81C      -0.120000
      3 C6           1.6770     2.3200     1.3730 ca         1 81C       0.188900
      4 N1           0.6420     1.4930     1.1320 nb         1 81C      -0.241000
      5 N3           2.1590    -0.3600     0.9800 nb         1 81C      -0.319000
      6 C2           0.9420     0.1970     0.9350 ca         1 81C       0.424900
      7 CAA        -11.0460    -1.0810     0.3190 c3         1 81C      -0.090100
      8 CAB         -2.3090    -4.1530     1.5380 c3         1 81C       0.155900
      9 CAC          6.6910     1.2500    -2.6470 c3         1 81C      -0.080100
     10 CAD          5.9410    -1.2060    -2.7410 c3         1 81C      -0.080100
     11 CAL          4.7980    -3.7580     1.6600 ca         1 81C      -0.042000
     12 CAM          5.9930    -4.0010     0.9710 ca         1 81C      -0.148000
     13 CAN          4.2970    -2.4490     1.7440 ca         1 81C      -0.132000
     14 CAO          6.6890    -2.9380     0.3750 ca         1 81C      -0.003000
     15 CAQ         -2.1080     0.5320     0.0490 ca         1 81C      -0.131000
     16 CAR         -3.6510    -1.7460     0.6200 ca         1 81C      -0.166000
     17 CAT         -4.7380     5.1370    -1.9040 c2         1 81C      -0.232000
     18 CAU         -4.9020     3.8870    -1.4040 ce         1 81C      -0.301200
     19 CAV         -7.7220    -0.3390    -1.5130 c6         1 81C       0.162800
     20 CAW         -8.0540    -0.5250     0.9020 c6         1 81C       0.162800
     21 CAX         -6.2480    -0.8390    -1.3690 c6         1 81C       0.178300
     22 CAY         -6.5840    -1.0260     1.0830 c6         1 81C       0.178300
     23 CBK          4.9760    -1.3740     1.1400 ca         1 81C       0.397000
     24 CBL         -1.4740    -0.6310     0.5270 ca         1 81C       0.314000
     25 CBM         -3.5080     0.5720    -0.1300 ca         1 81C      -0.005000
     26 CBN         -2.2510    -1.7850     0.7970 ca         1 81C       0.065100
     27 CBP         -4.2800    -0.5740     0.1660 ca         1 81C       0.177000
     28 CBQ          6.1870    -1.6190     0.4640 ca         1 81C      -0.297500
     29 NBC         -4.2020     1.7280    -0.5890 ns         1 81C      -0.138000
     30 NBD         -0.0820    -0.7060     0.7090 nu         1 81C      -0.915900
     31 NBE          4.4660    -0.0810     1.2500 nu         1 81C      -0.970900
     32 NBT         -8.6260    -0.8630    -0.4420 n3         1 81C      -0.720600
     33 NBU         -5.6820    -0.5550    -0.0140 nh         1 81C      -0.784400
     34 OAG         -2.6080     3.3230    -1.0980 o          1 81C      -0.585100
     35 OBF         -1.6040    -2.9360     1.2340 os         1 81C      -0.362100
     36 SBV          7.0910    -0.2900    -0.3450 sy         1 81C       1.017500
     37 Cl5          4.3410     2.9480     1.7320 cl         1 81C      -0.164000
     38 H1           1.4440     3.3730     1.5220 h4         1 81C       0.041100
     39 H2         -12.0650    -0.7900     0.0370 hc         1 81C       0.038033
     40 H3         -10.9730    -2.1730     0.2590 hc         1 81C       0.038033
     41 H4         -10.8850    -0.7730     1.3580 hc         1 81C       0.038033
     42 H5          -2.8410    -4.5280     0.6550 h1         1 81C       0.041033
     43 H6          -1.6050    -4.9290     1.8650 h1         1 81C       0.041033
     44 H7          -3.0350    -3.9920     2.3460 h1         1 81C       0.041033
     45 H8           6.0580     1.4830    -3.5120 hc         1 81C       0.054367
     46 H9           6.7450     2.1490    -2.0210 hc         1 81C       0.054367
     47 H10          7.7000     1.0250    -3.0140 hc         1 81C       0.054367
     48 H11          5.4470    -2.0170    -2.1930 hc         1 81C       0.054367
     49 H12          5.3240    -0.9780    -3.6190 hc         1 81C       0.054367
     50 H13          6.9130    -1.5720    -3.0960 hc         1 81C       0.054367
     51 H14          4.2620    -4.5790     2.1320 ha         1 81C       0.118000
     52 H15          6.3850    -5.0130     0.9010 ha         1 81C       0.122000
     53 H16          3.3820    -2.2710     2.2990 ha         1 81C       0.140000
     54 H17          7.6150    -3.1490    -0.1580 ha         1 81C       0.144000
     55 H18         -1.5020     1.3920    -0.1930 ha         1 81C       0.187000
     56 H19         -4.2630    -2.6180     0.8190 ha         1 81C       0.121000
     57 H20        -10.3420    -0.6410    -1.6570 h1         1 81C       0.029200
     58 H21        -10.0940     0.6750    -0.5060 h1         1 81C       0.029200
     59 H22         -5.5910     5.7620    -2.1770 ha         1 81C       0.176000
     60 H23         -3.7500     5.5750    -2.0580 ha         1 81C       0.176000
     61 H25         -5.9060     3.4820    -1.2710 ha         1 81C       0.177000
     62 H27         -7.7180     0.7610    -1.4950 h1         1 81C       0.037200
     63 H28         -8.0940    -0.6390    -2.5040 h1         1 81C       0.037200
     64 H29         -8.6590    -0.9680     1.7050 h1         1 81C       0.037200
     65 H30         -8.0700     0.5650     1.0530 h1         1 81C       0.037200
     66 H31         -6.2210    -1.9210    -1.5610 h1         1 81C       0.044950
     67 H32         -5.6370    -0.3540    -2.1450 h1         1 81C       0.044950
     68 H33         -6.2110    -0.6740     2.0550 h1         1 81C       0.044950
     69 H34         -6.5920    -2.1260     1.1130 h1         1 81C       0.044950
     70 H35          5.1170     0.3420    -1.4840 h1         1 81C       0.095700
     71 H36         -5.2060     1.6020    -0.5950 hn         1 81C       0.177000
     72 H37          0.2270    -1.6700     0.8320 hn         1 81C       0.526000
     73 H38          5.1920     0.6400     1.2320 hn         1 81C       0.546000
     74 CAS        -10.0270    -0.4150    -0.6280 c3         1 81C       0.169800
     75 CBH         -3.7800     2.9750    -1.0180 c          1 81C       0.606300
     76 CBR          6.1090     0.0530    -1.8510 c3         1 81C      -0.246700
     77 OAH          6.9940     0.9100     0.4980 o          1 81C      -0.527000
     78 OAI          8.3990    -0.7980    -0.7800 o          1 81C      -0.527000
@<TRIPOS>BOND
     1     1     2 ar  
     2     1     5 ar  
     3     1    31 1   
     4     2     3 ar  
     5     2    37 1   
     6     3     4 ar  
     7     3    38 1   
     8     4     6 ar  
     9     5     6 ar  
    10     6    30 1   
    11     7    39 1   
    12     7    40 1   
    13     7    41 1   
    14     7    74 1   
    15     8    35 1   
    16     8    42 1   
    17     8    43 1   
    18     8    44 1   
    19     9    45 1   
    20     9    46 1   
    21     9    47 1   
    22     9    76 1   
    23    10    48 1   
    24    10    49 1   
    25    10    50 1   
    26    10    76 1   
    27    11    12 ar  
    28    11    13 ar  
    29    11    51 1   
    30    12    14 ar  
    31    12    52 1   
    32    13    23 ar  
    33    13    53 1   
    34    14    28 ar  
    35    14    54 1   
    36    15    24 ar  
    37    15    25 ar  
    38    15    55 1   
    39    16    26 ar  
    40    16    27 ar  
    41    16    56 1   
    42    17    18 2   
    43    17    59 1   
    44    17    60 1   
    45    18    61 1   
    46    18    75 1   
    47    19    21 1   
    48    19    32 1   
    49    19    62 1   
    50    19    63 1   
    51    20    22 1   
    52    20    32 1   
    53    20    64 1   
    54    20    65 1   
    55    21    33 1   
    56    21    66 1   
    57    21    67 1   
    58    22    33 1   
    59    22    68 1   
    60    22    69 1   
    61    23    28 ar  
    62    23    31 1   
    63    24    26 ar  
    64    24    30 1   
    65    25    27 ar  
    66    25    29 1   
    67    26    35 1   
    68    27    33 1   
    69    28    36 1   
    70    29    71 1   
    71    29    75 1   
    72    30    72 1   
    73    31    73 1   
    74    32    74 1   
    75    34    75 2   
    76    36    76 1   
    77    36    77 2   
    78    36    78 2   
    79    57    74 1   
    80    58    74 1   
    81    70    76 1   
@<TRIPOS>SUBSTRUCTURE
     1 81C         1 TEMP              0 ****  ****    0 ROOT
