@<TRIPOS>MOLECULE
81C
   78    81     1     0     0
SMALL
abcg2


@<TRIPOS>ATOM
      1 C4           3.1350     0.6050     0.9540 ca         1 81C       0.435900
      2 C5           2.9380     2.0020     0.9100 ca         1 81C      -0.120000
      3 C6           1.6490     2.4440     0.7470 ca         1 81C       0.188900
      4 N1           0.6100     1.6230     0.6380 nb         1 81C      -0.241000
      5 N3           2.1050    -0.2060     0.8360 nb         1 81C      -0.319000
      6 C2           0.8880     0.3270     0.6900 ca         1 81C       0.424900
      7 CAA        -10.7070    -1.6400     0.2020 c3         1 81C      -0.090100
      8 CAB         -2.2330    -3.9570     1.1410 c3         1 81C       0.155900
      9 CAC          6.8430     0.8950    -2.6190 c3         1 81C      -0.080100
     10 CAD          5.8680    -1.4440    -2.6870 c3         1 81C      -0.080100
     11 CAL          4.3970    -3.5090     1.9240 ca         1 81C      -0.042000
     12 CAM          5.5740    -3.9290     1.3210 ca         1 81C      -0.148000
     13 CAN          3.9890    -2.1880     1.8510 ca         1 81C      -0.132000
     14 CAO          6.3500    -3.0090     0.6380 ca         1 81C      -0.003000
     15 CAQ         -2.1250     0.7310     0.1400 ca         1 81C      -0.131000
     16 CAR         -3.6130    -1.5890     0.4910 ca         1 81C      -0.166000
     17 CAT         -4.7540     5.3320    -1.3080 c2         1 81C      -0.232000
     18 CAU         -4.9580     4.0880    -0.8920 ce         1 81C      -0.301200
     19 CAV         -7.5940    -0.3490    -1.4650 c6         1 81C       0.162800
     20 CAW         -7.9290    -0.6260     0.8690 c6         1 81C       0.162800
     21 CAX         -6.1250    -0.6880    -1.3080 c6         1 81C       0.178300
     22 CAY         -6.4640    -0.9750     1.0500 c6         1 81C       0.178300
     23 CBK          4.7510    -1.2480     1.1580 ca         1 81C       0.397000
     24 CBL         -1.4790    -0.4590     0.4550 ca         1 81C       0.314000
     25 CBM         -3.5130     0.7670     0.0120 ca         1 81C      -0.005000
     26 CBN         -2.2380    -1.6330     0.6330 ca         1 81C       0.065100
     27 CBP         -4.2640    -0.3980     0.1860 ca         1 81C       0.177000
     28 CBQ          5.9390    -1.6850     0.5520 ca         1 81C      -0.297500
     29 NBC         -4.2470     1.9220    -0.2620 ns         1 81C      -0.138000
     30 NBD         -0.1020    -0.5970     0.5980 nu         1 81C      -0.915900
     31 NBE          4.3870     0.0980     1.0910 nu         1 81C      -0.970900
     32 NBT         -8.3910    -1.0110    -0.4510 n3         1 81C      -0.720600
     33 NBU         -5.6700    -0.3140     0.0270 nh         1 81C      -0.784400
     34 OAG         -2.6660     3.4440    -0.8750 o          1 81C      -0.585100
     35 OBF         -1.5340    -2.7460     0.9320 os         1 81C      -0.362100
     36 SBV          6.9820    -0.5610    -0.3490 sy         1 81C       1.017500
     37 CL5          4.2590     3.1050     1.0380 cl         1 81C      -0.164000
     38 H1           1.4420     3.5070     0.7040 h4         1 81C       0.041100
     39 H2         -11.7510    -1.4660    -0.0600 hc         1 81C       0.038033
     40 H3         -10.4890    -2.6950     0.0330 hc         1 81C       0.038033
     41 H4         -10.6070    -1.4410     1.2690 hc         1 81C       0.038033
     42 H5          -2.7760    -4.2720     0.2460 h1         1 81C       0.041033
     43 H6          -1.4850    -4.7070     1.3820 h1         1 81C       0.041033
     44 H7          -2.9370    -3.8780     1.9740 h1         1 81C       0.041033
     45 H8           6.2850     1.1520    -3.5180 hc         1 81C       0.054367
     46 H9           6.9610     1.8040    -2.0320 hc         1 81C       0.054367
     47 H10          7.8260     0.5410    -2.9270 hc         1 81C       0.054367
     48 H11          5.3270    -2.2160    -2.1410 hc         1 81C       0.054367
     49 H12          5.2770    -1.1900    -3.5670 hc         1 81C       0.054367
     50 H13          6.8170    -1.8560    -3.0290 hc         1 81C       0.054367
     51 H14          3.7890    -4.2160     2.4730 ha         1 81C       0.118000
     52 H15          5.8900    -4.9610     1.3850 ha         1 81C       0.122000
     53 H16          3.0800    -1.8840     2.3460 ha         1 81C       0.140000
     54 H17          7.2700    -3.3220     0.1660 ha         1 81C       0.144000
     55 H18         -1.5410     1.6250     0.0150 ha         1 81C       0.187000
     56 H19         -4.2050    -2.4870     0.6140 ha         1 81C       0.121000
     57 H20        -10.0300    -0.9520    -1.7000 h1         1 81C       0.029200
     58 H21        -10.0560     0.3020    -0.4700 h1         1 81C       0.029200
     59 H22         -5.5810     6.0100    -1.4650 ha         1 81C       0.176000
     60 H23         -3.7610     5.7130    -1.5080 ha         1 81C       0.176000
     61 H25         -5.9670     3.7380    -0.7000 ha         1 81C       0.177000
     62 H27         -7.7120     0.7490    -1.4300 h1         1 81C       0.037200
     63 H28         -7.9270    -0.6760    -2.4530 h1         1 81C       0.037200
     64 H29         -8.4970    -1.1590     1.6330 h1         1 81C       0.037200
     65 H30         -8.0710     0.4540     1.0500 h1         1 81C       0.037200
     66 H31         -5.9670    -1.7610    -1.4950 h1         1 81C       0.044950
     67 H32         -5.5470    -0.1390    -2.0530 h1         1 81C       0.044950
     68 H33         -6.1290    -0.6390     2.0320 h1         1 81C       0.044950
     69 H34         -6.3560    -2.0690     1.0180 h1         1 81C       0.044950
     70 H35          5.1120     0.2130    -1.5310 h1         1 81C       0.095700
     71 H36         -5.2420     1.7620    -0.1520 hn         1 81C       0.177000
     72 H37          0.2300    -1.5440     0.6980 hn         1 81C       0.526000
     73 H38          5.1500     0.7630     1.0960 hn         1 81C       0.546000
     74 CAS         -9.8080    -0.7580    -0.6480 c3         1 81C       0.169800
     75 CBH         -3.8330     3.1390    -0.6800 c          1 81C       0.606300
     76 CBR          6.0740    -0.1830    -1.8670 c3         1 81C      -0.246700
     77 OAH          7.1090     0.6730     0.4390 o          1 81C      -0.527000
     78 OAI          8.2130    -1.2630    -0.7050 o          1 81C      -0.527000
@<TRIPOS>BOND
     1     1     2 ar  
     2     1     5 ar  
     3     1    31 1   
     4     2     3 ar  
     5     2    37 1   
     6     3     4 ar  
     7     3    38 1   
     8     4     6 ar  
     9     5     6 ar  
    10     6    30 1   
    11     7    39 1   
    12     7    40 1   
    13     7    41 1   
    14     7    74 1   
    15     8    35 1   
    16     8    42 1   
    17     8    43 1   
    18     8    44 1   
    19     9    45 1   
    20     9    46 1   
    21     9    47 1   
    22     9    76 1   
    23    10    48 1   
    24    10    49 1   
    25    10    50 1   
    26    10    76 1   
    27    11    12 ar  
    28    11    13 ar  
    29    11    51 1   
    30    12    14 ar  
    31    12    52 1   
    32    13    23 ar  
    33    13    53 1   
    34    14    28 ar  
    35    14    54 1   
    36    15    24 ar  
    37    15    25 ar  
    38    15    55 1   
    39    16    26 ar  
    40    16    27 ar  
    41    16    56 1   
    42    17    18 2   
    43    17    59 1   
    44    17    60 1   
    45    18    61 1   
    46    18    75 1   
    47    19    21 1   
    48    19    32 1   
    49    19    62 1   
    50    19    63 1   
    51    20    22 1   
    52    20    32 1   
    53    20    64 1   
    54    20    65 1   
    55    21    33 1   
    56    21    66 1   
    57    21    67 1   
    58    22    33 1   
    59    22    68 1   
    60    22    69 1   
    61    23    28 ar  
    62    23    31 1   
    63    24    26 ar  
    64    24    30 1   
    65    25    27 ar  
    66    25    29 1   
    67    26    35 1   
    68    27    33 1   
    69    28    36 1   
    70    29    71 1   
    71    29    75 1   
    72    30    72 1   
    73    31    73 1   
    74    32    74 1   
    75    34    75 2   
    76    36    76 1   
    77    36    77 2   
    78    36    78 2   
    79    57    74 1   
    80    58    74 1   
    81    70    76 1   
@<TRIPOS>SUBSTRUCTURE
     1 81C         1 TEMP              0 ****  ****    0 ROOT
