@<TRIPOS>MOLECULE
81E
   75    76     1     0     0
SMALL
No Charge or Current Charge


@<TRIPOS>ATOM
      1 O           46.4890   -18.9990     7.8440 o          1 81E      -0.506000
      2 C           47.2130   -19.4640     8.7150 c          1 81E       0.601100
      3 C1          46.8990   -19.3450    10.2040 c3         1 81E      -0.132400
      4 C2          47.4410   -18.0140    10.7550 c3         1 81E       0.220500
      5 O2          48.8010   -18.1630    11.1410 oh         1 81E      -0.649000
      6 C3          46.6910   -17.5270    11.9660 c2         1 81E      -0.277200
      7 C4          46.1610   -16.2990    12.0930 c2         1 81E      -0.176200
      8 C5          45.4240   -15.7820    13.3140 c3         1 81E      -0.047200
      9 C6          45.7450   -14.3040    13.6560 c3         1 81E       0.187300
     10 O3          47.1270   -14.1680    13.9940 oh         1 81E      -0.672000
     11 C7          44.8940   -13.7780    14.8380 c3         1 81E      -0.128400
     12 C8          45.0920   -12.2820    15.2130 c6         1 81E       0.412000
     13 O4          46.4390   -12.0850    15.6280 oh         1 81E      -0.698000
     14 O5          44.8650   -11.5220    14.0220 os         1 81E      -0.448000
     15 C13         44.9950   -10.0840    14.1380 c6         1 81E       0.179300
     16 C11         43.9630    -9.5440    15.1840 c6         1 81E      -0.087700
     17 C12         44.0920    -8.0020    15.4100 c3         1 81E      -0.084100
     18 C10         44.1450   -10.3110    16.5280 c6         1 81E       0.178300
     19 O7          43.1190    -9.9530    17.4600 oh         1 81E      -0.655000
     20 C9          44.1000   -11.8380    16.3090 c6         1 81E      -0.176400
     21 C14         44.7930    -9.5290    12.6890 c3         1 81E      -0.105400
     22 C15         46.0500    -9.5200    11.7860 c3         1 81E       0.208500
     23 O6          47.0080    -8.6000    12.3120 oh         1 81E      -0.655000
     24 C16         46.7170   -10.8680    11.6250 c2         1 81E      -0.182200
     25 C17         46.8370   -11.5590    10.4710 ce         1 81E      -0.184000
     26 C18         47.5470   -12.8370    10.3680 ce         1 81E      -0.164000
     27 C19         47.6970   -13.5450     9.2170 cf         1 81E      -0.183000
     28 C20         48.4270   -14.8000     9.1160 cf         1 81E      -0.176000
     29 C21         48.4970   -15.5730     7.9990 ce         1 81E      -0.176000
     30 C22         49.2150   -16.8490     7.9330 ce         1 81E      -0.179000
     31 C23         49.1300   -17.7070     6.8960 c2         1 81E      -0.203200
     32 C24         49.8060   -19.0650     6.8290 c3         1 81E      -0.045200
     33 C25         48.8690   -20.2690     7.1270 c3         1 81E       0.180300
     34 O1          48.3700   -20.1660     8.4780 os         1 81E      -0.431100
     35 C26         49.6090   -21.6180     7.0380 c3         1 81E      -0.114100
     36 H1          45.8110   -19.3630    10.3290 hc         1 81E       0.082700
     37 H2          47.3690   -20.1660    10.7560 hc         1 81E       0.082700
     38 H3          47.3480   -17.2520     9.9690 h1         1 81E       0.043700
     39 H4          48.9860   -17.4200    11.7530 ho         1 81E       0.446000
     40 H5          46.6050   -18.2580    12.7720 ha         1 81E       0.178000
     41 H6          46.2520   -15.5710    11.2820 ha         1 81E       0.173000
     42 H7          44.3460   -15.8640    13.1320 hc         1 81E       0.050200
     43 H8          45.6370   -16.4130    14.1860 hc         1 81E       0.050200
     44 H9          45.5160   -13.6930    12.7700 h1         1 81E       0.053700
     45 H10         47.1540   -13.3460    14.5480 ho         1 81E       0.463000
     46 H11         43.8390   -13.9390    14.5870 hc         1 81E       0.058200
     47 H12         45.0870   -14.4040    15.7180 hc         1 81E       0.058200
     48 H13         46.4430   -12.2310    16.5980 ho         1 81E       0.460000
     49 H14         46.0110    -9.8320    14.4760 h1         1 81E       0.065700
     50 H15         42.9480    -9.7280    14.8050 hc         1 81E       0.069700
     51 H16         43.4150    -7.6520    16.1980 hc         1 81E       0.039700
     52 H17         45.1110    -7.7280    15.7070 hc         1 81E       0.039700
     53 H18         43.8380    -7.4260    14.5140 hc         1 81E       0.039700
     54 H19         45.1290   -10.0470    16.9440 h1         1 81E       0.037700
     55 H20         43.3280   -10.4120    18.3020 ho         1 81E       0.443000
     56 H21         43.0830   -12.1310    16.0140 hc         1 81E       0.061200
     57 H22         44.3120   -12.3660    17.2490 hc         1 81E       0.061200
     58 H23         44.4090    -8.5060    12.7100 hc         1 81E       0.058200
     59 H24         44.0120   -10.1110    12.1840 hc         1 81E       0.058200
     60 H25         45.7340    -9.1750    10.7910 h1         1 81E       0.033700
     61 H26         46.6280    -7.7010    12.2070 ho         1 81E       0.439000
     62 H27         47.1450   -11.2580    12.5490 ha         1 81E       0.192000
     63 H28         46.4140   -11.1570     9.5480 ha         1 81E       0.166000
     64 H29         47.9920   -13.2300    11.2860 ha         1 81E       0.182000
     65 H30         47.2460   -13.1550     8.3010 ha         1 81E       0.169000
     66 H31         48.9420   -15.1440    10.0150 ha         1 81E       0.170000
     67 H32         47.9690   -15.2500     7.0990 ha         1 81E       0.171000
     68 H33         49.8170   -17.1150     8.8050 ha         1 81E       0.178000
     69 H34         48.5160   -17.4660     6.0260 ha         1 81E       0.168000
     70 H35         50.2370   -19.2010     5.8290 hc         1 81E       0.057700
     71 H36         50.6530   -19.0960     7.5250 hc         1 81E       0.057700
     72 H37         48.0490   -20.2880     6.3950 h1         1 81E       0.061700
     73 H38         48.9230   -22.4460     7.2530 hc         1 81E       0.048033
     74 H39         50.0160   -21.7670     6.0320 hc         1 81E       0.048033
     75 H40         50.4370   -21.6580     7.7560 hc         1 81E       0.048033
@<TRIPOS>BOND
     1     1     2 2   
     2     2     3 1   
     3     2    34 1   
     4     3     4 1   
     5     3    36 1   
     6     3    37 1   
     7     4     5 1   
     8     4     6 1   
     9     4    38 1   
    10     5    39 1   
    11     6     7 2   
    12     6    40 1   
    13     7     8 1   
    14     7    41 1   
    15     8     9 1   
    16     8    42 1   
    17     8    43 1   
    18     9    10 1   
    19     9    11 1   
    20     9    44 1   
    21    10    45 1   
    22    11    12 1   
    23    11    46 1   
    24    11    47 1   
    25    12    13 1   
    26    12    14 1   
    27    12    20 1   
    28    13    48 1   
    29    14    15 1   
    30    15    16 1   
    31    15    21 1   
    32    15    49 1   
    33    16    17 1   
    34    16    18 1   
    35    16    50 1   
    36    17    51 1   
    37    17    52 1   
    38    17    53 1   
    39    18    19 1   
    40    18    20 1   
    41    18    54 1   
    42    19    55 1   
    43    20    56 1   
    44    20    57 1   
    45    21    22 1   
    46    21    58 1   
    47    21    59 1   
    48    22    23 1   
    49    22    24 1   
    50    22    60 1   
    51    23    61 1   
    52    24    25 2   
    53    24    62 1   
    54    25    26 1   
    55    25    63 1   
    56    26    27 2   
    57    26    64 1   
    58    27    28 1   
    59    27    65 1   
    60    28    29 2   
    61    28    66 1   
    62    29    30 1   
    63    29    67 1   
    64    30    31 2   
    65    30    68 1   
    66    31    32 1   
    67    31    69 1   
    68    32    33 1   
    69    32    70 1   
    70    32    71 1   
    71    33    34 1   
    72    33    35 1   
    73    33    72 1   
    74    35    73 1   
    75    35    74 1   
    76    35    75 1   
@<TRIPOS>SUBSTRUCTURE
     1 81E         1 TEMP              0 ****  ****    0 ROOT
