@<TRIPOS>MOLECULE
81E
   75    76     1     0     0
SMALL
bcc


@<TRIPOS>ATOM
      1 O           46.4320   -20.7050     8.4310 o          1 81E      -0.555000
      2 C           47.1830   -20.0040     9.0670 c          1 81E       0.650100
      3 C1          46.8490   -19.4830    10.4460 c3         1 81E      -0.132400
      4 C2          47.4260   -18.1190    10.8280 c3         1 81E       0.197300
      5 O2          48.7870   -18.2950    11.1680 oh         1 81E      -0.586800
      6 C3          46.6690   -17.5350    11.9850 c2         1 81E      -0.227200
      7 C4          46.0460   -16.3610    11.9460 c2         1 81E      -0.126200
      8 C5          45.2710   -15.7660    13.0760 c3         1 81E      -0.047200
      9 C6          45.7320   -14.3600    13.4530 c3         1 81E       0.164100
     10 O3          47.1000   -14.4260    13.7980 oh         1 81E      -0.609800
     11 C7          44.8600   -13.8220    14.5890 c3         1 81E      -0.128400
     12 C8          45.1290   -12.3780    15.0200 c6         1 81E       0.365600
     13 O4          46.4830   -12.2140    15.4220 oh         1 81E      -0.635800
     14 O5          44.9470   -11.5740    13.9010 os         1 81E      -0.401600
     15 C13         45.0420   -10.1640    14.0870 c6         1 81E       0.156100
     16 C11         44.0330    -9.6670    15.1300 c6         1 81E      -0.087700
     17 C12         44.1950    -8.1720    15.3910 c3         1 81E      -0.084100
     18 C10         44.2410   -10.4630    16.4160 c6         1 81E       0.155100
     19 O7          43.2520   -10.0780    17.3480 oh         1 81E      -0.592800
     20 C9          44.1730   -11.9590    16.1370 c6         1 81E      -0.176400
     21 C14         44.8530    -9.5560    12.7020 c3         1 81E      -0.105400
     22 C15         46.1350    -9.4340    11.8700 c3         1 81E       0.185300
     23 O6          47.0480    -8.5250    12.4600 oh         1 81E      -0.592800
     24 C16         46.8620   -10.7310    11.7140 c2         1 81E      -0.132200
     25 C17         46.9230   -11.4210    10.5700 ce         1 81E      -0.134000
     26 C18         47.6160   -12.6820    10.4370 ce         1 81E      -0.114000
     27 C19         47.6910   -13.3820     9.2890 cf         1 81E      -0.133000
     28 C20         48.4030   -14.6270     9.1620 cf         1 81E      -0.126000
     29 C21         48.4440   -15.3680     8.0380 ce         1 81E      -0.126000
     30 C22         49.1470   -16.6260     7.9510 ce         1 81E      -0.129000
     31 C23         49.0820   -17.4650     6.9100 c2         1 81E      -0.153200
     32 C24         49.7420   -18.8060     6.8930 c3         1 81E      -0.045200
     33 C25         48.7880   -19.9300     7.2980 c3         1 81E       0.157100
     34 O1          48.3730   -19.6220     8.6400 os         1 81E      -0.407900
     35 C26         49.4510   -21.2920     7.2520 c3         1 81E      -0.114100
     36 H1          45.7610   -19.4460    10.5090 hc         1 81E       0.082700
     37 H2          47.1690   -20.2290    11.1820 hc         1 81E       0.082700
     38 H3          47.3210   -17.4380     9.9720 h1         1 81E       0.043700
     39 H4          49.1450   -17.4290    11.3860 ho         1 81E       0.407000
     40 H5          46.6530   -18.1240    12.9000 ha         1 81E       0.128000
     41 H6          46.0770   -15.7790    11.0250 ha         1 81E       0.123000
     42 H7          44.2170   -15.7010    12.7880 hc         1 81E       0.050200
     43 H8          45.3200   -16.4180    13.9540 hc         1 81E       0.050200
     44 H9          45.5930   -13.7160    12.5720 h1         1 81E       0.053700
     45 H10         47.3120   -13.6060    14.2640 ho         1 81E       0.424000
     46 H11         43.8120   -13.8960    14.2850 hc         1 81E       0.058200
     47 H12         44.9690   -14.4670    15.4670 hc         1 81E       0.058200
     48 H13         46.6020   -12.5710    16.3100 ho         1 81E       0.421000
     49 H14         46.0430    -9.9050    14.4590 h1         1 81E       0.065700
     50 H15         43.0190    -9.8670    14.7580 hc         1 81E       0.069700
     51 H16         43.5310    -7.8390    16.1860 hc         1 81E       0.039700
     52 H17         45.2190    -7.9410    15.6940 hc         1 81E       0.039700
     53 H18         43.9670    -7.5720    14.5110 hc         1 81E       0.039700
     54 H19         45.2410   -10.2140    16.8020 h1         1 81E       0.037700
     55 H20         43.4590   -10.4870    18.1940 ho         1 81E       0.404000
     56 H21         43.1530   -12.2130    15.8350 hc         1 81E       0.061200
     57 H22         44.3870   -12.5320    17.0460 hc         1 81E       0.061200
     58 H23         44.4230    -8.5550    12.7830 hc         1 81E       0.058200
     59 H24         44.1190   -10.1480    12.1490 hc         1 81E       0.058200
     60 H25         45.8330    -9.0840    10.8720 h1         1 81E       0.033700
     61 H26         46.5830    -7.6970    12.6240 ho         1 81E       0.400000
     62 H27         47.3550   -11.1270    12.5980 ha         1 81E       0.142000
     63 H28         46.4360   -11.0280     9.6810 ha         1 81E       0.116000
     64 H29         48.1000   -13.0760    11.3270 ha         1 81E       0.132000
     65 H30         47.1940   -13.0000     8.4010 ha         1 81E       0.119000
     66 H31         48.9310   -14.9850    10.0440 ha         1 81E       0.120000
     67 H32         47.9040   -15.0300     7.1560 ha         1 81E       0.121000
     68 H33         49.7370   -16.9120     8.8180 ha         1 81E       0.128000
     69 H34         48.4730   -17.2000     6.0500 ha         1 81E       0.118000
     70 H35         50.1100   -19.0380     5.8900 hc         1 81E       0.057700
     71 H36         50.6080   -18.8180     7.5610 hc         1 81E       0.057700
     72 H37         47.9140   -19.9190     6.6410 h1         1 81E       0.061700
     73 H38         48.7630   -22.0850     7.5430 hc         1 81E       0.048033
     74 H39         49.7890   -21.5020     6.2370 hc         1 81E       0.048033
     75 H40         50.3210   -21.3270     7.9110 hc         1 81E       0.048033
@<TRIPOS>BOND
     1     1     2 2   
     2     2     3 1   
     3     2    34 1   
     4     3     4 1   
     5     3    36 1   
     6     3    37 1   
     7     4     5 1   
     8     4     6 1   
     9     4    38 1   
    10     5    39 1   
    11     6     7 2   
    12     6    40 1   
    13     7     8 1   
    14     7    41 1   
    15     8     9 1   
    16     8    42 1   
    17     8    43 1   
    18     9    10 1   
    19     9    11 1   
    20     9    44 1   
    21    10    45 1   
    22    11    12 1   
    23    11    46 1   
    24    11    47 1   
    25    12    13 1   
    26    12    14 1   
    27    12    20 1   
    28    13    48 1   
    29    14    15 1   
    30    15    16 1   
    31    15    21 1   
    32    15    49 1   
    33    16    17 1   
    34    16    18 1   
    35    16    50 1   
    36    17    51 1   
    37    17    52 1   
    38    17    53 1   
    39    18    19 1   
    40    18    20 1   
    41    18    54 1   
    42    19    55 1   
    43    20    56 1   
    44    20    57 1   
    45    21    22 1   
    46    21    58 1   
    47    21    59 1   
    48    22    23 1   
    49    22    24 1   
    50    22    60 1   
    51    23    61 1   
    52    24    25 2   
    53    24    62 1   
    54    25    26 1   
    55    25    63 1   
    56    26    27 2   
    57    26    64 1   
    58    27    28 1   
    59    27    65 1   
    60    28    29 2   
    61    28    66 1   
    62    29    30 1   
    63    29    67 1   
    64    30    31 2   
    65    30    68 1   
    66    31    32 1   
    67    31    69 1   
    68    32    33 1   
    69    32    70 1   
    70    32    71 1   
    71    33    34 1   
    72    33    35 1   
    73    33    72 1   
    74    35    73 1   
    75    35    74 1   
    76    35    75 1   
@<TRIPOS>SUBSTRUCTURE
     1 81E         1 TEMP              0 ****  ****    0 ROOT
