@<TRIPOS>MOLECULE
81F
   54    57     1     0     0
SMALL
No Charge or Current Charge


@<TRIPOS>ATOM
      1 C01        129.2190   141.5290   114.0490 c3         1 81F      -0.046800
      2 N01        130.1800   143.4490   105.3960 n3         1 81F      -0.726600
      3 C02        128.4060   142.3960   113.1000 ca         1 81F      -0.075300
      4 N02        131.2630   142.3880   102.8210 nh         1 81F      -0.787400
      5 C03        128.7990   142.5330   111.7550 ca         1 81F      -0.107000
      6 N03        131.9180   142.1930    99.1140 nb         1 81F      -0.640000
      7 C04        128.0550   143.3360   110.8640 ca         1 81F      -0.072300
      8 C05        128.4820   143.4870   109.3960 c6         1 81F      -0.018400
      9 C06        129.9260   144.0340   109.2510 c6         1 81F      -0.067400
     10 C07        130.2780   144.3590   107.7690 c6         1 81F      -0.086900
     11 C08        128.3190   142.1510   108.6040 c6         1 81F      -0.067400
     12 C09        129.2220   142.0620   107.3390 c6         1 81F      -0.086900
     13 C10        129.5100   143.4700   106.7360 c6         1 81F       0.188500
     14 C11        129.2740   142.9760   104.3020 c6         1 81F       0.161800
     15 C12        129.9340   143.0780   102.8890 c6         1 81F       0.205800
     16 C13        131.4690   142.6790   105.3470 c6         1 81F       0.161800
     17 C14        132.1690   142.7740   103.9530 c6         1 81F       0.205800
     18 C15        131.8160   141.9900   101.5680 ca         1 81F       0.273000
     19 C16        132.8030   140.9850   101.5240 ca         1 81F      -0.134000
     20 C17        133.3340   140.6040   100.2790 ca         1 81F      -0.034900
     21 C18        132.8690   141.2280    99.1040 ca         1 81F       0.314900
     22 C19        131.4090   142.5560   100.3220 ca         1 81F       0.282900
     23 C20        126.9070   144.0020   111.3370 ca         1 81F      -0.110000
     24 C21        126.5120   143.8710   112.6790 ca         1 81F      -0.106000
     25 C22        127.2600   143.0710   113.5590 ca         1 81F      -0.111000
     26 Br01       134.6730   139.2400   100.1850 br         1 81F      -0.090100
     27 H1         130.0330   142.1060   114.5030 hc         1 81F       0.041700
     28 H2         128.5980   141.1310   114.8610 hc         1 81F       0.041700
     29 H3         129.6640   140.6740   113.5270 hc         1 81F       0.041700
     30 H5         129.6850   142.0110   111.4020 ha         1 81F       0.109000
     31 H6         127.8170   144.2270   108.9280 hc         1 81F       0.050700
     32 H7         130.6410   143.2960   109.6380 hc         1 81F       0.044450
     33 H8         130.0540   144.9360   109.8660 hc         1 81F       0.044450
     34 H9         131.3640   144.2750   107.6490 hc         1 81F       0.044700
     35 H10        130.0400   145.4110   107.5610 hc         1 81F       0.044700
     36 H11        127.2650   142.0410   108.3140 hc         1 81F       0.044450
     37 H12        128.5410   141.2910   109.2500 hc         1 81F       0.044450
     38 H13        128.7420   141.4030   106.6050 hc         1 81F       0.044700
     39 H14        130.1700   141.5800   107.6120 hc         1 81F       0.044700
     40 H15        128.5260   143.9480   106.6040 h1         1 81F       0.054700
     41 H16        128.3440   143.5640   104.2940 h1         1 81F       0.042200
     42 H17        128.9880   141.9270   104.4640 h1         1 81F       0.042200
     43 H18        130.0540   144.1410   102.6330 h1         1 81F       0.047450
     44 H19        129.2400   142.6410   102.1560 h1         1 81F       0.047450
     45 H20        131.2850   141.6150   105.5570 h1         1 81F       0.042200
     46 H21        132.1780   143.0350   106.1060 h1         1 81F       0.042200
     47 H22        133.0630   142.1350   103.9780 h1         1 81F       0.047450
     48 H23        132.5180   143.8070   103.8080 h1         1 81F       0.047450
     49 H24        133.1410   140.5000   102.4340 ha         1 81F       0.131000
     50 H25        133.2670   140.9470    98.1300 h4         1 81F       0.036100
     51 H26        130.6520   143.3380   100.2900 h4         1 81F       0.021100
     52 H27        126.3180   144.6240   110.6670 ha         1 81F       0.110000
     53 H28        125.6260   144.3890   113.0380 ha         1 81F       0.112000
     54 H29        126.9480   142.9760   114.5970 ha         1 81F       0.111000
@<TRIPOS>BOND
     1     1     3 1   
     2     1    27 1   
     3     1    28 1   
     4     1    29 1   
     5     2    13 1   
     6     2    14 1   
     7     2    16 1   
     8     3     5 ar  
     9     3    25 ar  
    10     4    15 1   
    11     4    17 1   
    12     4    18 1   
    13     5     7 ar  
    14     5    30 1   
    15     6    21 ar  
    16     6    22 ar  
    17     7     8 1   
    18     7    23 ar  
    19     8     9 1   
    20     8    11 1   
    21     8    31 1   
    22     9    10 1   
    23     9    32 1   
    24     9    33 1   
    25    10    13 1   
    26    10    34 1   
    27    10    35 1   
    28    11    12 1   
    29    11    36 1   
    30    11    37 1   
    31    12    13 1   
    32    12    38 1   
    33    12    39 1   
    34    13    40 1   
    35    14    15 1   
    36    14    41 1   
    37    14    42 1   
    38    15    43 1   
    39    15    44 1   
    40    16    17 1   
    41    16    45 1   
    42    16    46 1   
    43    17    47 1   
    44    17    48 1   
    45    18    19 ar  
    46    18    22 ar  
    47    19    20 ar  
    48    19    49 1   
    49    20    21 ar  
    50    20    26 1   
    51    21    50 1   
    52    22    51 1   
    53    23    24 ar  
    54    23    52 1   
    55    24    25 ar  
    56    24    53 1   
    57    25    54 1   
@<TRIPOS>SUBSTRUCTURE
     1 81F         1 TEMP              0 ****  ****    0 ROOT
