@<TRIPOS>MOLECULE
81F
   54    57     1     0     0
SMALL
abcg2


@<TRIPOS>ATOM
      1 C01        129.0530   141.8430   114.1010 c3         1 81F      -0.046800
      2 N01        130.2190   143.0490   105.4490 n3         1 81F      -0.726600
      3 C02        128.3440   142.6690   113.0680 ca         1 81F      -0.075300
      4 N02        131.1630   142.1920   102.8970 nh         1 81F      -0.787400
      5 C03        128.7710   142.6810   111.7450 ca         1 81F      -0.107000
      6 N03        131.5100   142.1670    99.2490 nb         1 81F      -0.640000
      7 C04        128.1440   143.4620   110.7720 ca         1 81F      -0.072300
      8 C05        128.6200   143.4520   109.3420 c6         1 81F      -0.018400
      9 C06        130.1180   143.7210   109.1940 c6         1 81F      -0.067400
     10 C07        130.4800   143.9620   107.7230 c6         1 81F      -0.086900
     11 C08        128.2690   142.1230   108.6390 c6         1 81F      -0.067400
     12 C09        129.1600   141.8500   107.4180 c6         1 81F      -0.086900
     13 C10        129.5890   143.1640   106.7600 c6         1 81F       0.188500
     14 C11        129.2880   142.8040   104.3730 c6         1 81F       0.161800
     15 C12        129.9580   142.9970   103.0270 c6         1 81F       0.205800
     16 C13        131.2800   142.0710   105.3540 c6         1 81F       0.161800
     17 C14        132.0450   142.2340   104.0540 c6         1 81F       0.205800
     18 C15        131.7300   142.0600   101.6500 ca         1 81F       0.273000
     19 C16        133.0590   141.6410   101.4710 ca         1 81F      -0.134000
     20 C17        133.5490   141.4790   100.1890 ca         1 81F      -0.034900
     21 C18        132.7540   141.7440    99.0860 ca         1 81F       0.314900
     22 C19        131.0140   142.3270   100.4630 ca         1 81F       0.282900
     23 C20        127.0560   144.2400   111.1520 ca         1 81F      -0.110000
     24 C21        126.6080   144.2350   112.4680 ca         1 81F      -0.106000
     25 C22        127.2460   143.4570   113.4200 ca         1 81F      -0.111000
     26 BR01       135.3270   140.9070    99.9340 br         1 81F      -0.090100
     27 H1         129.6130   142.4750   114.7930 hc         1 81F       0.041700
     28 H2         128.3510   141.2610   114.6990 hc         1 81F       0.041700
     29 H3         129.7590   141.1500   113.6440 hc         1 81F       0.041700
     30 H5         129.6200   142.0650   111.4670 ha         1 81F       0.109000
     31 H6         128.0940   144.2620   108.8250 hc         1 81F       0.050700
     32 H7         130.6810   142.8660   109.5830 hc         1 81F       0.044450
     33 H8         130.4160   144.5810   109.7970 hc         1 81F       0.044450
     34 H9         131.5300   143.6980   107.5690 hc         1 81F       0.044700
     35 H10        130.3920   145.0250   107.4840 hc         1 81F       0.044700
     36 H11        127.2180   142.1470   108.3410 hc         1 81F       0.044450
     37 H12        128.3700   141.2990   109.3480 hc         1 81F       0.044450
     38 H13        128.6240   141.2130   106.7100 hc         1 81F       0.044700
     39 H14        130.0480   141.2900   107.7260 hc         1 81F       0.044700
     40 H15        128.6780   143.7490   106.5890 h1         1 81F       0.054700
     41 H16        128.4590   143.5130   104.4310 h1         1 81F       0.042200
     42 H17        128.8540   141.7910   104.4140 h1         1 81F       0.042200
     43 H18        130.1840   144.0620   102.8750 h1         1 81F       0.047450
     44 H19        129.2330   142.7050   102.2690 h1         1 81F       0.047450
     45 H20        130.8990   141.0390   105.4120 h1         1 81F       0.042200
     46 H21        131.9920   142.1950   106.1710 h1         1 81F       0.042200
     47 H22        132.7550   141.4110   104.0040 h1         1 81F       0.047450
     48 H23        132.6210   143.1690   104.0730 h1         1 81F       0.047450
     49 H24        133.7060   141.4410   102.3120 ha         1 81F       0.131000
     50 H25        133.1180   141.6270    98.0730 h4         1 81F       0.036100
     51 H26        129.9950   142.6860   100.4970 h4         1 81F       0.021100
     52 H27        126.5540   144.8570   110.4150 ha         1 81F       0.110000
     53 H28        125.7560   144.8410   112.7490 ha         1 81F       0.112000
     54 H29        126.8940   143.4610   114.4450 ha         1 81F       0.111000
@<TRIPOS>BOND
     1     1     3 1   
     2     1    27 1   
     3     1    28 1   
     4     1    29 1   
     5     2    13 1   
     6     2    14 1   
     7     2    16 1   
     8     3     5 ar  
     9     3    25 ar  
    10     4    15 1   
    11     4    17 1   
    12     4    18 1   
    13     5     7 ar  
    14     5    30 1   
    15     6    21 ar  
    16     6    22 ar  
    17     7     8 1   
    18     7    23 ar  
    19     8     9 1   
    20     8    11 1   
    21     8    31 1   
    22     9    10 1   
    23     9    32 1   
    24     9    33 1   
    25    10    13 1   
    26    10    34 1   
    27    10    35 1   
    28    11    12 1   
    29    11    36 1   
    30    11    37 1   
    31    12    13 1   
    32    12    38 1   
    33    12    39 1   
    34    13    40 1   
    35    14    15 1   
    36    14    41 1   
    37    14    42 1   
    38    15    43 1   
    39    15    44 1   
    40    16    17 1   
    41    16    45 1   
    42    16    46 1   
    43    17    47 1   
    44    17    48 1   
    45    18    19 ar  
    46    18    22 ar  
    47    19    20 ar  
    48    19    49 1   
    49    20    21 ar  
    50    20    26 1   
    51    21    50 1   
    52    22    51 1   
    53    23    24 ar  
    54    23    52 1   
    55    24    25 ar  
    56    24    53 1   
    57    25    54 1   
@<TRIPOS>SUBSTRUCTURE
     1 81F         1 TEMP              0 ****  ****    0 ROOT
