@<TRIPOS>MOLECULE
81G
   50    54     1     0     0
SMALL
abcg2


@<TRIPOS>ATOM
      1 N3           6.1820     2.9180     0.0090 na         1 81G       0.001800
      2 C6           4.1760     3.0740     0.5900 cc         1 81G       0.266900
      3 C7           4.3970     1.7110     0.2860 cc         1 81G      -0.154000
      4 C8           3.4260     0.6460     0.3710 cc         1 81G      -0.060000
      5 C10          1.4230    -0.4630     0.7350 cd         1 81G       0.330000
      6 C13         -1.7290    -2.2330     1.4280 c6         1 81G      -0.104400
      7 C15         -3.2820    -0.9750    -0.1480 c6         1 81G       0.233300
      8 C17         -2.0570    -0.6210    -0.9990 c6         1 81G      -0.082400
      9 C20         -5.5450    -0.0530    -0.8510 ca         1 81G      -0.075000
     10 C21         -6.4800     0.9710    -0.9420 ca         1 81G      -0.151500
     11 C22         -6.1670     2.2050    -0.4140 ca         1 81G       0.176000
     12 C24         -4.9490     2.4480     0.1930 ca         1 81G      -0.151500
     13 C2           5.7340     1.6590    -0.0920 cd         1 81G      -0.112300
     14 N5           5.2640     3.7900     0.4170 nd         1 81G      -0.516800
     15 C9           2.1230     0.7680     0.7860 cd         1 81G      -0.201000
     16 N11          0.1430    -0.7030     1.1360 nu         1 81G      -0.927200
     17 C12         -0.5100    -1.8820     0.5770 c6         1 81G       0.415600
     18 C14         -2.8460    -1.2010     1.3080 c6         1 81G      -0.082400
     19 O16         -3.7900    -2.1770    -0.6850 oh         1 81G      -0.653000
     20 C18         -0.9450    -1.6580    -0.8810 c6         1 81G      -0.104400
     21 C19         -4.3120     0.1440    -0.2370 ca         1 81G      -0.130300
     22 F23         -7.0660     3.2000    -0.4940 f          1 81G      -0.177000
     23 C25         -4.0320     1.4120     0.2750 ca         1 81G      -0.075000
     24 N26          0.4480    -2.9770     0.6700 ns         1 81G      -0.505900
     25 C27          1.7560    -2.8660     0.3000 c          1 81G       0.623600
     26 O28          2.4750    -3.8360     0.0850 o          1 81G      -0.565000
     27 C29          2.2040    -1.4960     0.2690 cc         1 81G      -0.401600
     28 S30          3.8080    -0.9780    -0.0850 ss         1 81G       0.283000
     29 H1           7.1170     3.2370    -0.1960 hn         1 81G       0.373000
     30 H2           3.2620     3.5420     0.9250 h4         1 81G       0.039100
     31 H3          -2.1020    -3.2100     1.1120 hc         1 81G       0.066200
     32 H4          -1.4200    -2.3310     2.4700 hc         1 81G       0.066200
     33 H5          -2.3610    -0.5180    -2.0430 hc         1 81G       0.052950
     34 H6          -1.6850     0.3640    -0.7000 hc         1 81G       0.052950
     35 H7          -5.7960    -1.0140    -1.2770 ha         1 81G       0.119000
     36 H8          -7.4370     0.8030    -1.4200 ha         1 81G       0.134000
     37 H9          -4.7180     3.4250     0.5960 ha         1 81G       0.134000
     38 H10          6.6550    -0.2460     0.2240 hc         1 81G       0.060033
     39 H11          6.2350     0.0870    -1.4530 hc         1 81G       0.060033
     40 H12          7.6210     0.8840    -0.7190 hc         1 81G       0.060033
     41 H13          1.6810     1.6980     1.1140 ha         1 81G       0.134000
     42 H14         -0.4400     0.1070     1.2770 hn         1 81G       0.477000
     43 H15         -3.7060    -1.5300     1.9010 hc         1 81G       0.052950
     44 H16         -2.5410    -0.2540     1.7610 hc         1 81G       0.052950
     45 H17         -4.4350    -2.5490    -0.0730 ho         1 81G       0.445000
     46 H18         -1.2790    -2.6140    -1.2910 hc         1 81G       0.066200
     47 H19         -0.0860    -1.3440    -1.4810 hc         1 81G       0.066200
     48 H20         -3.0780     1.6170     0.7450 ha         1 81G       0.119000
     49 H21          0.0610    -3.9100     0.6540 hn         1 81G       0.314500
     50 C1           6.6050     0.5390    -0.5320 c3         1 81G      -0.041800
@<TRIPOS>BOND
     1     1    13 1   
     2     1    14 1   
     3     1    29 1   
     4     2     3 1   
     5     2    14 2   
     6     2    30 1   
     7     3     4 1   
     8     3    13 2   
     9     4    15 2   
    10     4    28 1   
    11     5    15 1   
    12     5    16 1   
    13     5    27 2   
    14     6    17 1   
    15     6    18 1   
    16     6    31 1   
    17     6    32 1   
    18     7     8 1   
    19     7    18 1   
    20     7    19 1   
    21     7    21 1   
    22     8    20 1   
    23     8    33 1   
    24     8    34 1   
    25     9    10 ar  
    26     9    21 ar  
    27     9    35 1   
    28    10    11 ar  
    29    10    36 1   
    30    11    12 ar  
    31    11    22 1   
    32    12    23 ar  
    33    12    37 1   
    34    13    50 1   
    35    15    41 1   
    36    16    17 1   
    37    16    42 1   
    38    17    20 1   
    39    17    24 1   
    40    18    43 1   
    41    18    44 1   
    42    19    45 1   
    43    20    46 1   
    44    20    47 1   
    45    21    23 ar  
    46    23    48 1   
    47    24    25 1   
    48    24    49 1   
    49    25    26 2   
    50    25    27 1   
    51    27    28 1   
    52    38    50 1   
    53    39    50 1   
    54    40    50 1   
@<TRIPOS>SUBSTRUCTURE
     1 81G         1 TEMP              0 ****  ****    0 ROOT
