@<TRIPOS>MOLECULE
81G
   50    54     1     0     0
SMALL
No Charge or Current Charge


@<TRIPOS>ATOM
      1 N3           6.2030     3.0300     0.1230 na         1 81G       0.001800
      2 C6           4.1320     3.0360     0.5610 cc         1 81G       0.266900
      3 C7           4.4740     1.6970     0.2970 cc         1 81G      -0.154000
      4 C8           3.5740     0.5690     0.3240 cc         1 81G      -0.060000
      5 C10          1.5590    -0.5460     0.5920 cd         1 81G       0.330000
      6 C13         -1.6550    -2.1860     1.4380 c6         1 81G      -0.104400
      7 C15         -3.3440    -0.9750    -0.1180 c6         1 81G       0.233300
      8 C17         -2.1600    -0.6700    -1.0820 c6         1 81G      -0.082400
      9 C20         -5.6910    -0.0630    -0.7760 ca         1 81G      -0.075000
     10 C21         -6.6300     0.9810    -0.8520 ca         1 81G      -0.151500
     11 C22         -6.3030     2.2560    -0.3740 ca         1 81G       0.176000
     12 C24         -5.0370     2.4980     0.1740 ca         1 81G      -0.151500
     13 C2           5.8120     1.6860     0.0120 cd         1 81G      -0.112300
     14 N5           5.1450     3.8740     0.4680 nd         1 81G      -0.516800
     15 C9           2.2360     0.6940     0.6280 cd         1 81G      -0.201000
     16 N11          0.2470    -0.7110     0.8810 nu         1 81G      -0.927200
     17 C12         -0.4810    -1.9050     0.4620 c6         1 81G       0.415600
     18 C14         -2.7960    -1.1300     1.3350 c6         1 81G      -0.082400
     19 O16         -3.9240    -2.2270    -0.4990 oh         1 81G      -0.653000
     20 C18         -1.0160    -1.7210    -0.9850 c6         1 81G      -0.104400
     21 C19         -4.4080     0.1550    -0.2090 ca         1 81G      -0.130300
     22 F23         -7.2060     3.2570    -0.4510 f          1 81G      -0.177000
     23 C25         -4.0950     1.4570     0.2530 ca         1 81G      -0.075000
     24 N26          0.4600    -3.0170     0.4970 ns         1 81G      -0.505900
     25 C27          1.8080    -2.9460     0.2680 c          1 81G       0.623600
     26 O28          2.4840    -3.9470     0.0960 o          1 81G      -0.565000
     27 C29          2.3340    -1.5960     0.2720 cc         1 81G      -0.401600
     28 S30          3.9970    -1.1220    -0.0050 ss         1 81G       0.283000
     29 H1           7.1440     3.3930    -0.0240 hn         1 81G       0.373000
     30 H2           3.1600     3.4310     0.8230 h4         1 81G       0.039100
     31 H3          -2.0670    -3.1830     1.2310 hc         1 81G       0.066200
     32 H4          -1.2790    -2.2260     2.4690 hc         1 81G       0.066200
     33 H5          -2.5300    -0.6270    -2.1160 hc         1 81G       0.052950
     34 H6          -1.7520     0.3270    -0.8710 hc         1 81G       0.052950
     35 H7          -5.9770    -1.0350    -1.1700 ha         1 81G       0.119000
     36 H8          -7.6100     0.8020    -1.2850 ha         1 81G       0.134000
     37 H9          -4.7850     3.4920     0.5330 ha         1 81G       0.134000
     38 H10          6.8160    -0.1790     0.4490 hc         1 81G       0.060033
     39 H11          6.4500     0.0680    -1.2720 hc         1 81G       0.060033
     40 H12          7.7800     0.9470    -0.5110 hc         1 81G       0.060033
     41 H13          1.7450     1.6280     0.8740 ha         1 81G       0.134000
     42 H14         -0.2770     0.1440     1.0380 hn         1 81G       0.477000
     43 H15         -3.6140    -1.4070     2.0140 hc         1 81G       0.052950
     44 H16         -2.4170    -0.1710     1.7090 hc         1 81G       0.052950
     45 H17         -4.6470    -2.3970     0.1390 ho         1 81G       0.445000
     46 H18         -1.3830    -2.6870    -1.3580 hc         1 81G       0.066200
     47 H19         -0.1950    -1.4360    -1.6550 hc         1 81G       0.066200
     48 H20         -3.1150     1.6780     0.6690 ha         1 81G       0.119000
     49 H21          0.0750    -3.9490     0.5350 hn         1 81G       0.314500
     50 C1           6.7630     0.5700    -0.3490 c3         1 81G      -0.041800
@<TRIPOS>BOND
     1     1    13 1   
     2     1    14 1   
     3     1    29 1   
     4     2     3 1   
     5     2    14 2   
     6     2    30 1   
     7     3     4 1   
     8     3    13 2   
     9     4    15 2   
    10     4    28 1   
    11     5    15 1   
    12     5    16 1   
    13     5    27 2   
    14     6    17 1   
    15     6    18 1   
    16     6    31 1   
    17     6    32 1   
    18     7     8 1   
    19     7    18 1   
    20     7    19 1   
    21     7    21 1   
    22     8    20 1   
    23     8    33 1   
    24     8    34 1   
    25     9    10 ar  
    26     9    21 ar  
    27     9    35 1   
    28    10    11 ar  
    29    10    36 1   
    30    11    12 ar  
    31    11    22 1   
    32    12    23 ar  
    33    12    37 1   
    34    13    50 1   
    35    15    41 1   
    36    16    17 1   
    37    16    42 1   
    38    17    20 1   
    39    17    24 1   
    40    18    43 1   
    41    18    44 1   
    42    19    45 1   
    43    20    46 1   
    44    20    47 1   
    45    21    23 ar  
    46    23    48 1   
    47    24    25 1   
    48    24    49 1   
    49    25    26 2   
    50    25    27 1   
    51    27    28 1   
    52    38    50 1   
    53    39    50 1   
    54    40    50 1   
@<TRIPOS>SUBSTRUCTURE
     1 81G         1 TEMP              0 ****  ****    0 ROOT
