@<TRIPOS>MOLECULE
81H
   50    53     1     0     0
SMALL
bcc


@<TRIPOS>ATOM
      1 C10         15.9330    11.8070    18.4180 ca         1 81H      -0.105500
      2 C11         16.8160    10.7260    18.3950 cp         1 81H      -0.036000
      3 C12         18.0180    10.7490    17.5450 cp         1 81H      -0.128300
      4 C13         18.7710    11.9130    17.3730 ca         1 81H       0.413200
      5 C15         18.4530     9.6140    16.8680 ca         1 81H      -0.089000
      6 C16         19.5680     9.6820    16.0510 ca         1 81H      -0.194300
      7 C17         20.2110    10.9030    15.9260 ca         1 81H       0.316600
      8 C18         21.4130    11.0810    15.0280 c3         1 81H       0.368300
      9 C2          12.2290    10.1990    20.1990 c3         1 81H       0.856700
     10 C21         22.7840    11.0930    15.7750 c3         1 81H       0.180100
     11 C22         23.0000    12.4320    16.5120 c3         1 81H       0.023300
     12 C27         24.7280    11.9060    18.2690 cc         1 81H       0.387400
     13 C29         23.9020    10.7790    14.7860 ca         1 81H      -0.166300
     14 C30         24.3600    11.6730    13.8250 ca         1 81H       0.204900
     15 C32         25.3480    11.3640    12.9110 ca         1 81H      -0.221000
     16 C33         25.8950    10.0990    12.9550 ca         1 81H       0.187900
     17 C35         25.4900     9.1650    13.8860 ca         1 81H      -0.198000
     18 C36         24.4970     9.5170    14.7850 ca         1 81H      -0.032000
     19 C6          14.5100    10.6420    19.9390 ca         1 81H       0.103100
     20 C7          15.3750     9.5610    19.9500 ca         1 81H      -0.116500
     21 C8          16.5250     9.6110    19.1810 ca         1 81H      -0.105500
     22 C9          14.7810    11.7720    19.1880 ca         1 81H      -0.116500
     23 F1          12.3290     9.0090    19.6070 f          1 81H      -0.227967
     24 F19         21.2650    12.2230    14.3130 f          1 81H      -0.212300
     25 F20         21.4360    10.0710    14.1230 f          1 81H      -0.212300
     26 F3          11.3290    10.1110    21.1640 f          1 81H      -0.227967
     27 F31         23.8490    12.9070    13.7490 f          1 81H      -0.127900
     28 F34         26.8410     9.7780    12.0670 f          1 81H      -0.130900
     29 F4          11.7720    11.0520    19.2790 f          1 81H      -0.227967
     30 N14         19.8310    11.9880    16.5870 nb         1 81H      -0.657000
     31 N23         24.3060    12.4550    17.1280 na         1 81H      -0.052400
     32 N24         25.3510    13.0150    16.5330 nc         1 81H      -0.199800
     33 N25         26.3560    12.8180    17.2880 nd         1 81H      -0.042000
     34 N26         26.0100    12.1320    18.3800 nd         1 81H      -0.383000
     35 O28         22.7850    10.0500    16.7080 oh         1 81H      -0.584800
     36 O5          13.3820    10.6030    20.7490 os         1 81H      -0.379900
     37 H1          16.1270    12.6810    17.8090 ha         1 81H       0.143000
     38 H2          18.5070    12.8190    17.9070 h4         1 81H       0.032100
     39 H3          17.9130     8.6800    16.9560 ha         1 81H       0.151000
     40 H4          19.9030     8.8040    15.5180 ha         1 81H       0.168000
     41 H5          22.9250    13.3000    15.8680 h1         1 81H       0.101200
     42 H6          22.2530    12.5510    17.2970 h1         1 81H       0.101200
     43 H7          24.0980    11.3870    18.9720 h5         1 81H       0.071100
     44 H8          25.6720    12.0960    12.1820 ha         1 81H       0.174000
     45 H9          25.9320     8.1780    13.9110 ha         1 81H       0.158000
     46 H10         24.1830     8.7780    15.5050 ha         1 81H       0.156000
     47 H11         15.1640     8.6960    20.5650 ha         1 81H       0.158500
     48 H12         17.2060     8.7700    19.2080 ha         1 81H       0.143000
     49 H13         14.1110    12.6210    19.1980 ha         1 81H       0.158500
     50 H14         22.1590    10.2260    17.4220 ho         1 81H       0.417000
@<TRIPOS>BOND
     1     1     2 ar  
     2     1    22 ar  
     3     1    37 1   
     4     2     3 1   
     5     2    21 ar  
     6     3     4 ar  
     7     3     5 ar  
     8     4    30 ar  
     9     4    38 1   
    10     5     6 ar  
    11     5    39 1   
    12     6     7 ar  
    13     6    40 1   
    14     7     8 1   
    15     7    30 ar  
    16     8    10 1   
    17     8    24 1   
    18     8    25 1   
    19     9    23 1   
    20     9    26 1   
    21     9    29 1   
    22     9    36 1   
    23    10    11 1   
    24    10    13 1   
    25    10    35 1   
    26    11    31 1   
    27    11    41 1   
    28    11    42 1   
    29    12    31 1   
    30    12    34 2   
    31    12    43 1   
    32    13    14 ar  
    33    13    18 ar  
    34    14    15 ar  
    35    14    27 1   
    36    15    16 ar  
    37    15    44 1   
    38    16    17 ar  
    39    16    28 1   
    40    17    18 ar  
    41    17    45 1   
    42    18    46 1   
    43    19    20 ar  
    44    19    22 ar  
    45    19    36 1   
    46    20    21 ar  
    47    20    47 1   
    48    21    48 1   
    49    22    49 1   
    50    31    32 1   
    51    32    33 2   
    52    33    34 1   
    53    35    50 1   
@<TRIPOS>SUBSTRUCTURE
     1 81H         1 TEMP              0 ****  ****    0 ROOT
