@<TRIPOS>MOLECULE
81H
   50    53     1     0     0
SMALL
No Charge or Current Charge


@<TRIPOS>ATOM
      1 C10         15.7070    11.4230    18.0980 ca         1 81H      -0.087500
      2 C11         16.7010    10.4230    18.2470 cp         1 81H      -0.036000
      3 C12         17.9260    10.4130    17.3850 cp         1 81H      -0.063000
      4 C13         18.5140    11.6150    16.9130 ca         1 81H       0.347900
      5 C15         18.5550     9.2040    17.0000 ca         1 81H      -0.071000
      6 C16         19.7020     9.2490    16.1900 ca         1 81H      -0.111000
      7 C17         20.2120    10.4960    15.7690 ca         1 81H       0.251300
      8 C18         21.4760    10.5850    14.8840 c3         1 81H       0.125700
      9 C2          12.1790    11.3340    20.6910 c3         1 81H       0.516000
     10 C21         22.7990    10.7890    15.7230 c3         1 81H       0.203300
     11 C22         22.7540    12.1020    16.5770 c3         1 81H       0.052600
     12 C27         25.0300    11.7390    17.7280 cc         1 81H       0.387400
     13 C29         24.0420    10.7350    14.7810 ca         1 81H      -0.166300
     14 C30         24.4590    11.8480    13.9990 ca         1 81H       0.240000
     15 C32         25.5800    11.7690    13.1610 ca         1 81H      -0.203000
     16 C33         26.3050    10.5790    13.0730 ca         1 81H       0.223000
     17 C35         25.9100     9.4610    13.8110 ca         1 81H      -0.180000
     18 C36         24.7870     9.5320    14.6530 ca         1 81H      -0.014000
     19 C6          14.3700    10.4430    19.8930 ca         1 81H       0.103100
     20 C7          15.3470     9.4480    20.0520 ca         1 81H      -0.098500
     21 C8          16.4960     9.4360    19.2430 ca         1 81H      -0.087500
     22 C9          14.5560    11.4370    18.9060 ca         1 81H      -0.098500
     23 F1          11.5490    11.3400    19.4930 f          1 81H      -0.106667
     24 F19         21.3540    11.5920    13.9830 f          1 81H      -0.091000
     25 F20         21.6090     9.4620    14.1340 f          1 81H      -0.091000
     26 F3          11.2490    11.0250    21.6210 f          1 81H      -0.106667
     27 F31         23.7850    13.0180    14.0200 f          1 81H      -0.163000
     28 F34         27.3840    10.5060    12.2630 f          1 81H      -0.166000
     29 F4          12.5910    12.5960    20.9520 f          1 81H      -0.106667
     30 N14         19.6230    11.6630    16.1350 nb         1 81H      -0.657000
     31 N23         24.0420    12.5180    17.1770 na         1 81H      -0.081700
     32 N24         24.3920    13.8260    17.2480 nc         1 81H      -0.199800
     33 N25         25.5640    13.8280    17.8220 nd         1 81H      -0.042000
     34 N26         25.9840    12.5560    18.1300 nd         1 81H      -0.383000
     35 O28         22.8990     9.7070    16.6740 oh         1 81H      -0.647000
     36 O5          13.2670    10.3890    20.7270 os         1 81H      -0.403100
     37 H1          15.8190    12.1920    17.3380 ha         1 81H       0.125000
     38 H2          18.0890    12.5800    17.1830 h4         1 81H       0.032100
     39 H3          18.1530     8.2430    17.3110 ha         1 81H       0.133000
     40 H4          20.1850     8.3220    15.8900 ha         1 81H       0.150000
     41 H5          22.3750    12.9270    15.9630 h1         1 81H       0.101200
     42 H6          22.0330    11.9830    17.3950 h1         1 81H       0.101200
     43 H7          25.0020    10.6600    17.8010 h5         1 81H       0.071100
     44 H8          25.8820    12.6320    12.5760 ha         1 81H       0.156000
     45 H9          26.4720     8.5340    13.7290 ha         1 81H       0.140000
     46 H10         24.5050     8.6350    15.2000 ha         1 81H       0.138000
     47 H11         15.2140     8.6820    20.8120 ha         1 81H       0.140500
     48 H12         17.2400     8.6590    19.4030 ha         1 81H       0.125000
     49 H13         13.8260    12.2240    18.7460 ha         1 81H       0.140500
     50 H14         22.1080     9.7290    17.2540 ho         1 81H       0.456000
@<TRIPOS>BOND
     1     1     2 ar  
     2     1    22 ar  
     3     1    37 1   
     4     2     3 1   
     5     2    21 ar  
     6     3     4 ar  
     7     3     5 ar  
     8     4    30 ar  
     9     4    38 1   
    10     5     6 ar  
    11     5    39 1   
    12     6     7 ar  
    13     6    40 1   
    14     7     8 1   
    15     7    30 ar  
    16     8    10 1   
    17     8    24 1   
    18     8    25 1   
    19     9    23 1   
    20     9    26 1   
    21     9    29 1   
    22     9    36 1   
    23    10    11 1   
    24    10    13 1   
    25    10    35 1   
    26    11    31 1   
    27    11    41 1   
    28    11    42 1   
    29    12    31 1   
    30    12    34 2   
    31    12    43 1   
    32    13    14 ar  
    33    13    18 ar  
    34    14    15 ar  
    35    14    27 1   
    36    15    16 ar  
    37    15    44 1   
    38    16    17 ar  
    39    16    28 1   
    40    17    18 ar  
    41    17    45 1   
    42    18    46 1   
    43    19    20 ar  
    44    19    22 ar  
    45    19    36 1   
    46    20    21 ar  
    47    20    47 1   
    48    21    48 1   
    49    22    49 1   
    50    31    32 1   
    51    32    33 2   
    52    33    34 1   
    53    35    50 1   
@<TRIPOS>SUBSTRUCTURE
     1 81H         1 TEMP              0 ****  ****    0 ROOT
