@<TRIPOS>MOLECULE
81I
   56    60     1     0     0
SMALL
bcc


@<TRIPOS>ATOM
      1 C1         127.8650    21.2470    -6.1440 ca         1 81I      -0.097000
      2 C2         126.5060    21.2560    -6.4070 ca         1 81I      -0.154500
      3 C3         125.6090    20.6260    -5.5440 ca         1 81I       0.077600
      4 N4         124.2380    20.6450    -5.8350 n          1 81I      -0.393000
      5 C5         123.2310    20.7000    -4.9130 c          1 81I       0.713500
      6 O6         123.3600    20.6680    -3.7070 o          1 81I      -0.597500
      7 C7         121.9310    20.8460    -5.6650 c5         1 81I      -0.172400
      8 C8         122.2740    20.4500    -7.0950 c5         1 81I       0.164500
      9 N9         121.4630    21.1080    -8.0970 n3         1 81I      -0.711600
     10 C10        121.8880    20.7590    -9.4440 c6         1 81I       0.145800
     11 C11        121.0530    21.4990   -10.4700 c6         1 81I       0.101500
     12 N12        119.6450    21.1960   -10.2840 n          1 81I      -0.474800
     13 C13        118.7550    20.8740   -11.2460 c          1 81I       0.615600
     14 O14        117.5450    21.0090   -11.1110 o          1 81I      -0.583100
     15 C15        119.2520    20.2980   -12.5120 cc         1 81I       0.166200
     16 O16        120.3410    19.4950   -12.5330 os         1 81I      -0.322800
     17 C17        120.4960    19.0540   -13.7930 cc         1 81I       0.247600
     18 C18        119.5250    19.5570   -14.5930 cd         1 81I      -0.279300
     19 C19        118.7050    20.3620   -13.7540 cd         1 81I      -0.195300
     20 C20        119.1960    21.5330    -8.9470 c6         1 81I       0.101500
     21 C21        120.0510    20.8030    -7.9250 c6         1 81I       0.145800
     22 C22        123.7540    20.8320    -7.1940 c5         1 81I       0.095000
     23 C23        126.1170    19.9690    -4.4220 ca         1 81I      -0.154500
     24 C24        127.4770    19.9720    -4.1680 ca         1 81I      -0.097000
     25 C25        128.3820    20.6160    -5.0140 cp         1 81I      -0.054000
     26 C26        129.8270    20.6310    -4.7180 cp         1 81I      -0.043000
     27 C27        130.2850    20.7430    -3.4040 ca         1 81I      -0.094000
     28 C28        131.6390    20.7710    -3.1100 ca         1 81I      -0.170000
     29 C29        132.5440    20.6890    -4.1510 ca         1 81I       0.135900
     30 C30        132.1350    20.5750    -5.4650 ca         1 81I      -0.170000
     31 C31        130.7760    20.5460    -5.7390 ca         1 81I      -0.094000
     32 F32        133.8570    20.7230    -3.8750 f          1 81I      -0.143900
     33 H1         128.5260    21.7710    -6.8230 ha         1 81I       0.134000
     34 H2         126.1510    21.7760    -7.2870 ha         1 81I       0.143500
     35 H3         121.6270    21.8980    -5.6200 hc         1 81I       0.087700
     36 H4         121.1460    20.2510    -5.2010 hc         1 81I       0.087700
     37 H5         122.1980    19.3520    -7.1820 h1         1 81I       0.040700
     38 H7         121.8150    19.6740    -9.6280 h1         1 81I       0.045450
     39 H8         122.9310    21.0460    -9.5880 h1         1 81I       0.045450
     40 H9         121.3920    21.2580   -11.4710 h1         1 81I       0.062950
     41 H10        121.1910    22.5770   -10.3340 h1         1 81I       0.062950
     42 H11        121.3260    18.3900   -13.9730 h4         1 81I       0.055100
     43 H12        119.4040    19.3740   -15.6480 ha         1 81I       0.165000
     44 H13        117.8270    20.9190   -14.0370 ha         1 81I       0.175000
     45 H14        119.2710    22.6150    -8.7920 h1         1 81I       0.062950
     46 H15        118.1550    21.2480    -8.8220 h1         1 81I       0.062950
     47 H16        119.7270    21.1180    -6.9320 h1         1 81I       0.045450
     48 H17        119.8570    19.7200    -8.0040 h1         1 81I       0.045450
     49 H18        124.3160    20.2030    -7.8840 h1         1 81I       0.059200
     50 H19        123.8530    21.8750    -7.5140 h1         1 81I       0.059200
     51 H20        125.4630    19.4330    -3.7520 ha         1 81I       0.143500
     52 H21        127.8390    19.4360    -3.3000 ha         1 81I       0.134000
     53 H22        129.5770    20.8320    -2.5900 ha         1 81I       0.137000
     54 H23        131.9830    20.8680    -2.0890 ha         1 81I       0.150000
     55 H24        132.8620    20.5020    -6.2630 ha         1 81I       0.150000
     56 H25        130.4570    20.4360    -6.7670 ha         1 81I       0.137000
@<TRIPOS>BOND
     1     1     2 ar  
     2     1    25 ar  
     3     1    33 1   
     4     2     3 ar  
     5     2    34 1   
     6     3     4 1   
     7     3    23 ar  
     8     4     5 1   
     9     4    22 1   
    10     5     6 2   
    11     5     7 1   
    12     7     8 1   
    13     7    35 1   
    14     7    36 1   
    15     8     9 1   
    16     8    22 1   
    17     8    37 1   
    18     9    10 1   
    19     9    21 1   
    20    10    11 1   
    21    10    38 1   
    22    10    39 1   
    23    11    12 1   
    24    11    40 1   
    25    11    41 1   
    26    12    13 1   
    27    12    20 1   
    28    13    14 2   
    29    13    15 1   
    30    15    16 1   
    31    15    19 2   
    32    16    17 1   
    33    17    18 2   
    34    17    42 1   
    35    18    19 1   
    36    18    43 1   
    37    19    44 1   
    38    20    21 1   
    39    20    45 1   
    40    20    46 1   
    41    21    47 1   
    42    21    48 1   
    43    22    49 1   
    44    22    50 1   
    45    23    24 ar  
    46    23    51 1   
    47    24    25 ar  
    48    24    52 1   
    49    25    26 1   
    50    26    27 ar  
    51    26    31 ar  
    52    27    28 ar  
    53    27    53 1   
    54    28    29 ar  
    55    28    54 1   
    56    29    30 ar  
    57    29    32 1   
    58    30    31 ar  
    59    30    55 1   
    60    31    56 1   
@<TRIPOS>SUBSTRUCTURE
     1 81I         1 TEMP              0 ****  ****    0 ROOT
