@<TRIPOS>MOLECULE
81I
   56    60     1     0     0
SMALL
No Charge or Current Charge


@<TRIPOS>ATOM
      1 C1         128.0030    21.0790    -6.1910 ca         1 81I      -0.079000
      2 C2         126.6240    21.0500    -6.4630 ca         1 81I      -0.136500
      3 C3         125.6930    20.6550    -5.4790 ca         1 81I      -0.015000
      4 N4         124.2830    20.7940    -5.7700 n          1 81I      -0.233400
      5 C5         123.2590    21.1280    -4.8590 c          1 81I       0.571000
      6 O6         123.3450    21.1630    -3.6390 o          1 81I      -0.522000
      7 C7         121.9940    21.2280    -5.7010 c5         1 81I      -0.172400
      8 C8         122.2470    20.1680    -6.7960 c5         1 81I       0.164500
      9 N9         121.4090    20.5050    -7.9920 n3         1 81I      -0.711600
     10 C10        121.7040    19.6810    -9.1960 c6         1 81I       0.145800
     11 C11        120.9680    20.1650   -10.4750 c6         1 81I       0.101500
     12 N12        119.5300    20.5560   -10.3220 n          1 81I      -0.407800
     13 C13        118.6710    20.8590   -11.4200 c          1 81I       0.548600
     14 O14        117.5240    21.2330   -11.1980 o          1 81I      -0.583100
     15 C15        119.1730    20.7240   -12.8330 cc         1 81I       0.056500
     16 O16        120.4510    20.3750   -13.2330 os         1 81I      -0.234000
     17 C17        120.4680    20.3980   -14.6100 cc         1 81I       0.137900
     18 C18        119.2340    20.7590   -15.0730 cd         1 81I      -0.196000
     19 C19        118.4120    20.9700   -13.9480 cd         1 81I      -0.112000
     20 C20        119.1160    20.9880    -8.9480 c6         1 81I       0.101500
     21 C21        119.9400    20.4290    -7.7600 c6         1 81I       0.145800
     22 C22        123.7520    20.4680    -7.1130 c5         1 81I       0.095000
     23 C23        126.1820    20.4050    -4.1770 ca         1 81I      -0.136500
     24 C24        127.5610    20.4320    -3.9040 ca         1 81I      -0.079000
     25 C25        128.5030    20.7600    -4.9070 cp         1 81I      -0.054000
     26 C26        129.9720    20.7910    -4.6160 cp         1 81I      -0.043000
     27 C27        130.4620    21.2090    -3.3510 ca         1 81I      -0.076000
     28 C28        131.8420    21.2380    -3.0810 ca         1 81I      -0.152000
     29 C29        132.7560    20.8490    -4.0700 ca         1 81I       0.171000
     30 C30        132.3000    20.4320    -5.3280 ca         1 81I      -0.152000
     31 C31        130.9200    20.4040    -5.6000 ca         1 81I      -0.076000
     32 F32        134.0810    20.8770    -3.8100 f          1 81I      -0.179000
     33 H1         128.6870    21.3790    -6.9810 ha         1 81I       0.116000
     34 H2         126.2860    21.3410    -7.4540 ha         1 81I       0.125500
     35 H3         121.9770    22.2220    -6.1620 hc         1 81I       0.087700
     36 H4         121.0990    21.0830    -5.0890 hc         1 81I       0.087700
     37 H5         122.0950    19.1430    -6.4290 h1         1 81I       0.040700
     38 H7         121.4170    18.6360    -9.0060 h1         1 81I       0.045450
     39 H8         122.7800    19.6720    -9.4180 h1         1 81I       0.045450
     40 H9         121.0460    19.3430   -11.1980 h1         1 81I       0.062950
     41 H10        121.5170    21.0260   -10.8830 h1         1 81I       0.062950
     42 H11        121.3930    20.1470   -15.1130 h4         1 81I       0.055100
     43 H12        118.9500    20.8640   -16.1160 ha         1 81I       0.147000
     44 H13        117.3680    21.2720   -13.9560 ha         1 81I       0.157000
     45 H14        119.1750    22.0850    -8.9120 h1         1 81I       0.062950
     46 H15        118.0630    20.7220    -8.7810 h1         1 81I       0.062950
     47 H16        119.6470    20.9930    -6.8640 h1         1 81I       0.045450
     48 H17        119.6420    19.3850    -7.5860 h1         1 81I       0.045450
     49 H18        124.2580    19.6020    -7.5580 h1         1 81I       0.059200
     50 H19        123.8620    21.3280    -7.7870 h1         1 81I       0.059200
     51 H20        125.5100    20.1390    -3.3680 ha         1 81I       0.125500
     52 H21        127.8990    20.1860    -2.9010 ha         1 81I       0.116000
     53 H22        129.7680    21.5270    -2.5770 ha         1 81I       0.119000
     54 H23        132.2020    21.5630    -2.1080 ha         1 81I       0.132000
     55 H24        133.0140    20.1290    -6.0900 ha         1 81I       0.132000
     56 H25        130.5830    20.0650    -6.5760 ha         1 81I       0.119000
@<TRIPOS>BOND
     1     1     2 ar  
     2     1    25 ar  
     3     1    33 1   
     4     2     3 ar  
     5     2    34 1   
     6     3     4 1   
     7     3    23 ar  
     8     4     5 1   
     9     4    22 1   
    10     5     6 2   
    11     5     7 1   
    12     7     8 1   
    13     7    35 1   
    14     7    36 1   
    15     8     9 1   
    16     8    22 1   
    17     8    37 1   
    18     9    10 1   
    19     9    21 1   
    20    10    11 1   
    21    10    38 1   
    22    10    39 1   
    23    11    12 1   
    24    11    40 1   
    25    11    41 1   
    26    12    13 1   
    27    12    20 1   
    28    13    14 2   
    29    13    15 1   
    30    15    16 1   
    31    15    19 2   
    32    16    17 1   
    33    17    18 2   
    34    17    42 1   
    35    18    19 1   
    36    18    43 1   
    37    19    44 1   
    38    20    21 1   
    39    20    45 1   
    40    20    46 1   
    41    21    47 1   
    42    21    48 1   
    43    22    49 1   
    44    22    50 1   
    45    23    24 ar  
    46    23    51 1   
    47    24    25 ar  
    48    24    52 1   
    49    25    26 1   
    50    26    27 ar  
    51    26    31 ar  
    52    27    28 ar  
    53    27    53 1   
    54    28    29 ar  
    55    28    54 1   
    56    29    30 ar  
    57    29    32 1   
    58    30    31 ar  
    59    30    55 1   
    60    31    56 1   
@<TRIPOS>SUBSTRUCTURE
     1 81I         1 TEMP              0 ****  ****    0 ROOT
