@<TRIPOS>MOLECULE
81J
   21    21     1     0     0
SMALL
No Charge or Current Charge


@<TRIPOS>ATOM
      1 C10         -3.0900    -0.0780     0.0310 c          1 81J       0.714600
      2 C01          4.9620    -0.1210     0.0070 c3         1 81J      -0.091100
      3 C02          3.5310    -0.6830     0.0180 c3         1 81J       0.170600
      4 C04          1.2550     0.2650     0.0130 ca         1 81J       0.101100
      5 C05          0.4520     1.4150     0.0010 ca         1 81J      -0.201500
      6 C06         -0.9500     1.3090     0.0070 ca         1 81J      -0.056500
      7 C07         -1.5760     0.0410     0.0250 ca         1 81J      -0.161600
      8 C08         -0.7590    -1.1150     0.0370 ca         1 81J      -0.056500
      9 C09          0.6430    -1.0050     0.0310 ca         1 81J      -0.201500
     10 O11         -3.7580     0.9460     0.0200 o          1 81J      -0.725500
     11 O12         -3.5900    -1.1940     0.0470 o          1 81J      -0.725500
     12 H012         5.1340     0.4820    -0.8930 hc         1 81J       0.036033
     13 H011         5.1390     0.5050     0.8890 hc         1 81J       0.036033
     14 H013         5.6910    -0.9410     0.0150 hc         1 81J       0.036033
     15 H022         3.3810    -1.3160    -0.8660 h1         1 81J       0.026200
     16 H021         3.3870    -1.2930     0.9190 h1         1 81J       0.026200
     17 H051         0.9170     2.3970    -0.0130 ha         1 81J       0.093500
     18 H061        -1.5480     2.2180    -0.0030 ha         1 81J       0.126000
     19 H081        -1.2100    -2.1050     0.0510 ha         1 81J       0.126000
     20 H091         1.2340    -1.9160     0.0410 ha         1 81J       0.093500
     21 O03          2.6230     0.4330     0.0070 os         1 81J      -0.366100
@<TRIPOS>BOND
     1     1     7 1   
     2     1    10 1   
     3     1    11 1   
     4     2     3 1   
     5     2    12 1   
     6     2    13 1   
     7     2    14 1   
     8     3    15 1   
     9     3    16 1   
    10     3    21 1   
    11     4     5 ar  
    12     4     9 ar  
    13     4    21 1   
    14     5     6 ar  
    15     5    17 1   
    16     6     7 ar  
    17     6    18 1   
    18     7     8 ar  
    19     8     9 ar  
    20     8    19 1   
    21     9    20 1   
@<TRIPOS>SUBSTRUCTURE
     1 81J         1 TEMP              0 ****  ****    0 ROOT
