@<TRIPOS>MOLECULE
81J
   21    21     1     0     0
SMALL
abcg2


@<TRIPOS>ATOM
      1 C10         -3.0460    -0.0930     0.0340 c          1 81J       0.714600
      2 C01          4.8980    -0.1300     0.0080 c3         1 81J      -0.091100
      3 C02          3.4780    -0.6450     0.0190 c3         1 81J       0.170600
      4 C04          1.2730     0.2640     0.0100 ca         1 81J       0.101100
      5 C05          0.4650     1.4040     0.0010 ca         1 81J      -0.201500
      6 C06         -0.9110     1.2810     0.0080 ca         1 81J      -0.056500
      7 C07         -1.5330     0.0320     0.0250 ca         1 81J      -0.161600
      8 C08         -0.7160    -1.0920     0.0330 ca         1 81J      -0.056500
      9 C09          0.6710    -0.9930     0.0260 ca         1 81J      -0.201500
     10 O11         -3.6960     0.9720     0.0190 o          1 81J      -0.725500
     11 O12         -3.5150    -1.2480     0.0530 o          1 81J      -0.725500
     12 H012         5.1030     0.4540    -0.8890 hc         1 81J       0.036033
     13 H011         5.1040     0.4900     0.8810 hc         1 81J       0.036033
     14 H013         5.5880    -0.9730     0.0250 hc         1 81J       0.036033
     15 H022         3.2980    -1.2840    -0.8520 h1         1 81J       0.026200
     16 H021         3.3000    -1.2540     0.9120 h1         1 81J       0.026200
     17 H051         0.9300     2.3830    -0.0110 ha         1 81J       0.093500
     18 H061        -1.5210     2.1750     0.0020 ha         1 81J       0.126000
     19 H081        -1.1670    -2.0760     0.0470 ha         1 81J       0.126000
     20 H091         1.2620    -1.8990     0.0320 ha         1 81J       0.093500
     21 O03          2.6030     0.4730     0.0010 os         1 81J      -0.366100
@<TRIPOS>BOND
     1     1     7 1   
     2     1    10 1   
     3     1    11 1   
     4     2     3 1   
     5     2    12 1   
     6     2    13 1   
     7     2    14 1   
     8     3    15 1   
     9     3    16 1   
    10     3    21 1   
    11     4     5 ar  
    12     4     9 ar  
    13     4    21 1   
    14     5     6 ar  
    15     5    17 1   
    16     6     7 ar  
    17     6    18 1   
    18     7     8 ar  
    19     8     9 ar  
    20     8    19 1   
    21     9    20 1   
@<TRIPOS>SUBSTRUCTURE
     1 81J         1 TEMP              0 ****  ****    0 ROOT
