@<TRIPOS>MOLECULE
81K
   47    46     1     0     0
SMALL
bcc


@<TRIPOS>ATOM
      1 C1          14.3630     0.6290    20.6720 c          1 81K       0.573900
      2 C2          13.6730     1.7290    19.9290 c3         1 81K      -0.198400
      3 C3          12.9090     1.3630    18.6580 c3         1 81K      -0.062400
      4 C4          13.7130     1.5610    17.3750 c3         1 81K      -0.074400
      5 C5          14.9270     0.6530    17.1950 c3         1 81K      -0.065400
      6 C6          14.6160    -0.8340    17.0360 c3         1 81K      -0.075400
      7 C7          13.7070    -1.2310    15.8750 c3         1 81K      -0.067400
      8 C8          14.2580    -0.9670    14.4640 c3         1 81K      -0.042200
      9 C16          6.5560     0.1150    11.4030 c3         1 81K      -0.088100
     10 C15          7.2730    -0.0940    12.7290 c3         1 81K      -0.076400
     11 C14          8.6570     0.5440    12.7630 c3         1 81K      -0.076400
     12 C13          9.3690     0.3390    14.0950 c3         1 81K      -0.074400
     13 C12         10.7320     1.0170    14.1970 c3         1 81K      -0.070400
     14 C11         11.7800     0.4510    13.2340 c3         1 81K      -0.044200
     15 C10         13.1290     1.0600    13.4590 c2         1 81K      -0.175200
     16 C9          14.1910     0.4620    14.0000 c2         1 81K      -0.159200
     17 O1          14.2140    -0.5540    20.4930 o          1 81K      -0.518100
     18 H1          15.0330     0.9900    21.4740 h4         1 81K      -0.022800
     19 H2          13.0010     2.1750    20.6750 hc         1 81K       0.059200
     20 H3          14.4140     2.5140    19.7420 hc         1 81K       0.059200
     21 H4          12.0240     2.0000    18.5980 hc         1 81K       0.047700
     22 H5          12.5290     0.3410    18.7250 hc         1 81K       0.047700
     23 H6          14.0510     2.6020    17.3400 hc         1 81K       0.038700
     24 H7          13.0440     1.4400    16.5190 hc         1 81K       0.038700
     25 H8          15.6040     0.7750    18.0470 hc         1 81K       0.032700
     26 H9          15.4930     1.0050    16.3290 hc         1 81K       0.032700
     27 H10         14.1620    -1.2000    17.9600 hc         1 81K       0.044700
     28 H11         15.5620    -1.3750    16.9360 hc         1 81K       0.044700
     29 H12         12.7260    -0.7580    15.9770 hc         1 81K       0.038200
     30 H13         13.5240    -2.3060    15.9610 hc         1 81K       0.038200
     31 H14         13.7030    -1.5990    13.7660 hc         1 81K       0.040700
     32 H15         15.2940    -1.3130    14.4210 hc         1 81K       0.040700
     33 H16          5.5690    -0.3480    11.4030 hc         1 81K       0.031367
     34 H17          6.4230     1.1770    11.1900 hc         1 81K       0.031367
     35 H18          7.1230    -0.3170    10.5760 hc         1 81K       0.031367
     36 H19          6.6670     0.3150    13.5430 hc         1 81K       0.036200
     37 H20          7.3670    -1.1660    12.9310 hc         1 81K       0.036200
     38 H21          9.2560     0.1320    11.9450 hc         1 81K       0.037700
     39 H22          8.5670     1.6170    12.5620 hc         1 81K       0.037700
     40 H23          8.7290     0.7160    14.8990 hc         1 81K       0.037200
     41 H24          9.4880    -0.7350    14.2820 hc         1 81K       0.037200
     42 H25         10.6200     2.0930    14.0280 hc         1 81K       0.038700
     43 H26         11.1060     0.9080    15.2200 hc         1 81K       0.038700
     44 H27         11.8180    -0.6350    13.3480 hc         1 81K       0.044200
     45 H28         11.4660     0.6430    12.2030 hc         1 81K       0.044200
     46 H29         13.2240     2.1060    13.1800 ha         1 81K       0.114000
     47 H30         15.0890     1.0580    14.1240 ha         1 81K       0.115000
@<TRIPOS>BOND
     1     1     2 1   
     2     1    17 2   
     3     1    18 1   
     4     2     3 1   
     5     2    19 1   
     6     2    20 1   
     7     3     4 1   
     8     3    21 1   
     9     3    22 1   
    10     4     5 1   
    11     4    23 1   
    12     4    24 1   
    13     5     6 1   
    14     5    25 1   
    15     5    26 1   
    16     6     7 1   
    17     6    27 1   
    18     6    28 1   
    19     7     8 1   
    20     7    29 1   
    21     7    30 1   
    22     8    16 1   
    23     8    31 1   
    24     8    32 1   
    25     9    10 1   
    26     9    33 1   
    27     9    34 1   
    28     9    35 1   
    29    10    11 1   
    30    10    36 1   
    31    10    37 1   
    32    11    12 1   
    33    11    38 1   
    34    11    39 1   
    35    12    13 1   
    36    12    40 1   
    37    12    41 1   
    38    13    14 1   
    39    13    42 1   
    40    13    43 1   
    41    14    15 1   
    42    14    44 1   
    43    14    45 1   
    44    15    16 2   
    45    15    46 1   
    46    16    47 1   
@<TRIPOS>SUBSTRUCTURE
     1 81K         1 TEMP              0 ****  ****    0 ROOT
