@<TRIPOS>MOLECULE
81K
   47    46     1     0     0
SMALL
No Charge or Current Charge


@<TRIPOS>ATOM
      1 C1          14.2120     0.5090    20.4270 c          1 81K       0.573900
      2 C2          13.2630     1.5940    19.9050 c3         1 81K      -0.198400
      3 C3          12.7550     1.3290    18.4630 c3         1 81K      -0.062400
      4 C4          13.7640     1.6380    17.3240 c3         1 81K      -0.074400
      5 C5          15.0100     0.7200    17.2220 c3         1 81K      -0.065400
      6 C6          14.7290    -0.7990    17.0760 c3         1 81K      -0.075400
      7 C7          13.8370    -1.2340    15.8830 c3         1 81K      -0.067400
      8 C8          14.4330    -0.9980    14.4720 c3         1 81K      -0.042200
      9 C16          6.5110     0.1060    11.4940 c3         1 81K      -0.088100
     10 C15          7.2330    -0.0150    12.8500 c3         1 81K      -0.076400
     11 C14          8.6630     0.5680    12.8280 c3         1 81K      -0.076400
     12 C13          9.3860     0.4420    14.1900 c3         1 81K      -0.074400
     13 C12         10.7900     1.0910    14.2330 c3         1 81K      -0.070400
     14 C11         11.8370     0.4210    13.3140 c3         1 81K      -0.044200
     15 C10         13.2170     1.0310    13.4840 c2         1 81K      -0.225200
     16 C9          14.3160     0.4330    13.9790 c2         1 81K      -0.209200
     17 O1          13.8230    -0.5720    20.8540 o          1 81K      -0.518100
     18 H1          15.2940     0.7660    20.4120 h4         1 81K      -0.022800
     19 H2          12.3930     1.6360    20.5710 hc         1 81K       0.059200
     20 H3          13.7880     2.5560    19.9120 hc         1 81K       0.059200
     21 H4          11.8780     1.9670    18.2990 hc         1 81K       0.047700
     22 H5          12.3890     0.2980    18.3770 hc         1 81K       0.047700
     23 H6          14.1040     2.6750    17.4290 hc         1 81K       0.038700
     24 H7          13.2250     1.6020    16.3720 hc         1 81K       0.038700
     25 H8          15.6460     0.8770    18.1000 hc         1 81K       0.032700
     26 H9          15.6170     1.0520    16.3710 hc         1 81K       0.032700
     27 H10         14.2650    -1.1630    18.0000 hc         1 81K       0.044700
     28 H11         15.6900    -1.3220    17.0020 hc         1 81K       0.044700
     29 H12         12.8520    -0.7600    15.9550 hc         1 81K       0.038200
     30 H13         13.6560    -2.3110    15.9890 hc         1 81K       0.038200
     31 H14         13.9190    -1.6650    13.7690 hc         1 81K       0.040700
     32 H15         15.4820    -1.3180    14.4610 hc         1 81K       0.040700
     33 H16          5.5030    -0.3190    11.5590 hc         1 81K       0.031367
     34 H17          6.4220     1.1580    11.1950 hc         1 81K       0.031367
     35 H18          7.0610    -0.4310    10.7120 hc         1 81K       0.031367
     36 H19          6.6410     0.5010    13.6160 hc         1 81K       0.036200
     37 H20          7.2760    -1.0730    13.1370 hc         1 81K       0.036200
     38 H21          9.2430     0.0500    12.0550 hc         1 81K       0.037700
     39 H22          8.6170     1.6260    12.5410 hc         1 81K       0.037700
     40 H23          8.7660     0.9130    14.9630 hc         1 81K       0.037200
     41 H24          9.4710    -0.6180    14.4610 hc         1 81K       0.037200
     42 H25         10.7070     2.1540    13.9760 hc         1 81K       0.038700
     43 H26         11.1530     1.0470    15.2670 hc         1 81K       0.038700
     44 H27         11.8490    -0.6540    13.5240 hc         1 81K       0.044200
     45 H28         11.5260     0.5260    12.2680 hc         1 81K       0.044200
     46 H29         13.2780     2.0700    13.1540 ha         1 81K       0.164000
     47 H30         15.2500     0.9950    14.0350 ha         1 81K       0.165000
@<TRIPOS>BOND
     1     1     2 1   
     2     1    17 2   
     3     1    18 1   
     4     2     3 1   
     5     2    19 1   
     6     2    20 1   
     7     3     4 1   
     8     3    21 1   
     9     3    22 1   
    10     4     5 1   
    11     4    23 1   
    12     4    24 1   
    13     5     6 1   
    14     5    25 1   
    15     5    26 1   
    16     6     7 1   
    17     6    27 1   
    18     6    28 1   
    19     7     8 1   
    20     7    29 1   
    21     7    30 1   
    22     8    16 1   
    23     8    31 1   
    24     8    32 1   
    25     9    10 1   
    26     9    33 1   
    27     9    34 1   
    28     9    35 1   
    29    10    11 1   
    30    10    36 1   
    31    10    37 1   
    32    11    12 1   
    33    11    38 1   
    34    11    39 1   
    35    12    13 1   
    36    12    40 1   
    37    12    41 1   
    38    13    14 1   
    39    13    42 1   
    40    13    43 1   
    41    14    15 1   
    42    14    44 1   
    43    14    45 1   
    44    15    16 2   
    45    15    46 1   
    46    16    47 1   
@<TRIPOS>SUBSTRUCTURE
     1 81K         1 TEMP              0 ****  ****    0 ROOT
