@<TRIPOS>MOLECULE
81M
   21    21     1     0     0
SMALL
No Charge or Current Charge


@<TRIPOS>ATOM
      1 C10         -3.4430    -0.1920    -0.0380 c          1 81M       0.712600
      2 C01          4.9930    -0.8010    -0.0330 c3         1 81M      -0.077100
      3 C02          3.4630    -0.9510    -0.0360 c3         1 81M       0.055600
      4 C04          0.8830     0.3940    -0.0280 ca         1 81M      -0.109000
      5 C05          0.0140     1.4970    -0.0210 ca         1 81M      -0.138000
      6 C06         -1.3790     1.3130    -0.0240 ca         1 81M      -0.079500
      7 C07         -1.9350     0.0120    -0.0340 ca         1 81M      -0.129600
      8 C08         -1.0530    -1.0930    -0.0420 ca         1 81M      -0.079500
      9 C09          0.3410    -0.9060    -0.0390 ca         1 81M      -0.138000
     10 O11         -3.8800    -1.3340    -0.0470 o          1 81M      -0.720000
     11 O12         -4.1680     0.7940    -0.0310 o          1 81M      -0.720000
     12 H1           5.3270    -0.2610     0.8620 hc         1 81M       0.035367
     13 H2           5.4730    -1.7870    -0.0400 hc         1 81M       0.035367
     14 H3           5.3290    -0.2480    -0.9180 hc         1 81M       0.035367
     15 H4           3.1490    -1.4990    -0.9330 h1         1 81M       0.060200
     16 H5           3.1470    -1.5130     0.8520 h1         1 81M       0.060200
     17 H6           0.4200     2.5060    -0.0130 ha         1 81M       0.091500
     18 H7          -2.0270     2.1870    -0.0180 ha         1 81M       0.127500
     19 H8          -1.4470    -2.1080    -0.0500 ha         1 81M       0.127500
     20 H9           0.9790    -1.7830    -0.0450 ha         1 81M       0.091500
     21 S03          2.6510     0.7110    -0.0240 ss         1 81M      -0.240000
@<TRIPOS>BOND
     1     1     7 1   
     2     1    10 1   
     3     1    11 1   
     4     2     3 1   
     5     2    12 1   
     6     2    13 1   
     7     2    14 1   
     8     3    15 1   
     9     3    16 1   
    10     3    21 1   
    11     4     5 ar  
    12     4     9 ar  
    13     4    21 1   
    14     5     6 ar  
    15     5    17 1   
    16     6     7 ar  
    17     6    18 1   
    18     7     8 ar  
    19     8     9 ar  
    20     8    19 1   
    21     9    20 1   
@<TRIPOS>SUBSTRUCTURE
     1 81M         1 TEMP              0 ****  ****    0 ROOT
