@<TRIPOS>MOLECULE
81M
   21    21     1     0     0
SMALL
abcg2


@<TRIPOS>ATOM
      1 C10         -3.3960    -0.1900    -0.0290 c          1 81M       0.712600
      2 C01          4.9140    -0.7680    -0.0250 c3         1 81M      -0.077100
      3 C02          3.4050    -0.9430    -0.0390 c3         1 81M       0.055600
      4 C04          0.9060     0.3640    -0.0370 ca         1 81M      -0.109000
      5 C05          0.0460     1.4660    -0.0250 ca         1 81M      -0.138000
      6 C06         -1.3250     1.2820    -0.0250 ca         1 81M      -0.079500
      7 C07         -1.8880     0.0060    -0.0340 ca         1 81M      -0.129600
      8 C08         -1.0220    -1.0820    -0.0470 ca         1 81M      -0.079500
      9 C09          0.3560    -0.9160    -0.0490 ca         1 81M      -0.138000
     10 O11         -3.8070    -1.3670    -0.0240 o          1 81M      -0.720000
     11 O12         -4.0930     0.8420    -0.0280 o          1 81M      -0.720000
     12 H1           5.2490    -0.2410     0.8670 hc         1 81M       0.035367
     13 H2           5.3920    -1.7480    -0.0340 hc         1 81M       0.035367
     14 H3           5.2630    -0.2190    -0.9000 hc         1 81M       0.035367
     15 H4           3.0890    -1.4880    -0.9290 h1         1 81M       0.060200
     16 H5           3.0760    -1.5000     0.8390 h1         1 81M       0.060200
     17 H6           0.4520     2.4710    -0.0170 ha         1 81M       0.091500
     18 H7          -1.9740     2.1490    -0.0150 ha         1 81M       0.127500
     19 H8          -1.4290    -2.0850    -0.0550 ha         1 81M       0.127500
     20 H9           0.9900    -1.7930    -0.0590 ha         1 81M       0.091500
     21 S03          2.6330     0.6990    -0.0340 ss         1 81M      -0.240000
@<TRIPOS>BOND
     1     1     7 1   
     2     1    10 1   
     3     1    11 1   
     4     2     3 1   
     5     2    12 1   
     6     2    13 1   
     7     2    14 1   
     8     3    15 1   
     9     3    16 1   
    10     3    21 1   
    11     4     5 ar  
    12     4     9 ar  
    13     4    21 1   
    14     5     6 ar  
    15     5    17 1   
    16     6     7 ar  
    17     6    18 1   
    18     7     8 ar  
    19     8     9 ar  
    20     8    19 1   
    21     9    20 1   
@<TRIPOS>SUBSTRUCTURE
     1 81M         1 TEMP              0 ****  ****    0 ROOT
