@<TRIPOS>MOLECULE
81O
   62    64     1     0     0
SMALL
bcc


@<TRIPOS>ATOM
      1 C1          19.4050    -0.9870    33.4140 c          1 81O       0.929200
      2 C10         16.6000     4.8030    36.7590 ca         1 81O      -0.226000
      3 C11         17.5400     3.8110    36.5120 ca         1 81O      -0.076000
      4 C12         13.4260     2.7330    37.0280 c3         1 81O       0.162300
      5 C13         11.9250     3.7360    38.7020 c          1 81O       0.691700
      6 C15         12.6840     4.4060    41.0420 ca         1 81O       0.156900
      7 C16         12.4260     4.6960    42.3700 ca         1 81O      -0.134000
      8 C17         11.1350     4.5360    42.8450 ca         1 81O      -0.163300
      9 C18         10.1230     4.0950    41.9970 ca         1 81O      -0.110000
     10 C19         10.4100     3.8340    40.6710 ca         1 81O      -0.068000
     11 C2          19.2170    -0.1940    34.7040 ca         1 81O      -0.238900
     12 C20         10.8050     4.8260    44.2790 c3         1 81O       0.721200
     13 C21         14.5160     6.7460    37.1020 c3         1 81O       0.144400
     14 C22         14.5810     7.2410    35.6680 c3         1 81O      -0.108400
     15 C23         13.3290     6.9330    34.8560 c3         1 81O      -0.071400
     16 C24         13.3870     7.5370    33.4600 c3         1 81O      -0.089100
     17 C4          11.7020     3.9690    40.1690 ca         1 81O      -0.158600
     18 C41         18.9980     0.9640    37.1890 ca         1 81O       0.395600
     19 C42         18.8950     1.5420    38.5710 c3         1 81O      -0.133400
     20 C44         20.0080    -0.5270    35.7950 ca         1 81O       0.416200
     21 C45         18.2710     0.8250    34.8840 ca         1 81O      -0.002300
     22 C46         17.4000     1.3230    33.7660 c3         1 81O      -0.038800
     23 C5          18.1700     1.4090    36.1530 cp         1 81O      -0.202300
     24 C6          17.1740     2.4750    36.4230 cp         1 81O      -0.029000
     25 C7          15.8280     2.1580    36.5950 ca         1 81O      -0.073000
     26 C8          14.8680     3.1240    36.8440 ca         1 81O      -0.168300
     27 C9          15.2600     4.4690    36.9310 ca         1 81O       0.148100
     28 F30         10.5290     3.7040    44.9550 f          1 81O      -0.233967
     29 F31          9.7260     5.6100    44.3820 f          1 81O      -0.233967
     30 F32         11.8030     5.4370    44.9210 f          1 81O      -0.233967
     31 N27         12.9780     2.9730    38.3850 ns         1 81O      -0.545900
     32 N43         19.9060     0.0120    37.0020 nb         1 81O      -0.708000
     33 O25         18.3790    -1.2360    32.7550 o          1 81O      -0.817800
     34 O26         20.5710    -1.3450    33.1600 o          1 81O      -0.817800
     35 O28         11.1410     4.2060    37.8930 o          1 81O      -0.598100
     36 O33         14.2800     5.3480    37.2000 os         1 81O      -0.323900
     37 H1          16.9350     5.8300    36.8120 ha         1 81O       0.127000
     38 H2          18.5770     4.0960    36.3800 ha         1 81O       0.136000
     39 H3          12.7770     3.2890    36.3530 h1         1 81O       0.064200
     40 H4          13.3070     1.6750    36.7860 h1         1 81O       0.064200
     41 H5          13.2340     5.0480    42.9970 ha         1 81O       0.167000
     42 H6           9.1110     3.9660    42.3560 ha         1 81O       0.150000
     43 H7           9.6170     3.5110    40.0100 ha         1 81O       0.159000
     44 H8          15.4150     7.0310    37.6580 h1         1 81O       0.048200
     45 H9          13.6680     7.2040    37.6120 h1         1 81O       0.048200
     46 H10         15.4610     6.8410    35.1570 hc         1 81O       0.045200
     47 H11         14.7290     8.3250    35.7160 hc         1 81O       0.045200
     48 H12         12.4510     7.3150    35.3860 hc         1 81O       0.048700
     49 H13         13.1910     5.8520    34.7760 hc         1 81O       0.048700
     50 H14         12.4900     7.3010    32.8860 hc         1 81O       0.029367
     51 H15         13.4760     8.6240    33.5020 hc         1 81O       0.029367
     52 H16         14.2450     7.1580    32.9020 hc         1 81O       0.029367
     53 H17         19.5300     0.9840    39.2570 hc         1 81O       0.034033
     54 H18         19.2080     2.5880    38.5950 hc         1 81O       0.034033
     55 H19         17.8700     1.5140    38.9420 hc         1 81O       0.034033
     56 H20         20.7660    -1.2950    35.6820 h4         1 81O       0.031100
     57 H21         16.4760     0.7460    33.7050 hc         1 81O       0.043033
     58 H22         17.1220     2.3630    33.9210 hc         1 81O       0.043033
     59 H23         17.8920     1.2370    32.8020 hc         1 81O       0.043033
     60 H24         15.5150     1.1210    36.5300 ha         1 81O       0.141000
     61 H25         13.5260     2.5580    39.1210 hn         1 81O       0.319500
     62 F29         13.9340     4.5850    40.5990 f          1 81O      -0.123900
@<TRIPOS>BOND
     1     1    11 1   
     2     1    33 1   
     3     1    34 1   
     4     2     3 ar  
     5     2    27 ar  
     6     2    37 1   
     7     3    24 ar  
     8     3    38 1   
     9     4    26 1   
    10     4    31 1   
    11     4    39 1   
    12     4    40 1   
    13     5    17 1   
    14     5    31 1   
    15     5    35 2   
    16     6     7 ar  
    17     6    17 ar  
    18     6    62 1   
    19     7     8 ar  
    20     7    41 1   
    21     8     9 ar  
    22     8    12 1   
    23     9    10 ar  
    24     9    42 1   
    25    10    17 ar  
    26    10    43 1   
    27    11    20 ar  
    28    11    21 ar  
    29    12    28 1   
    30    12    29 1   
    31    12    30 1   
    32    13    14 1   
    33    13    36 1   
    34    13    44 1   
    35    13    45 1   
    36    14    15 1   
    37    14    46 1   
    38    14    47 1   
    39    15    16 1   
    40    15    48 1   
    41    15    49 1   
    42    16    50 1   
    43    16    51 1   
    44    16    52 1   
    45    18    19 1   
    46    18    23 ar  
    47    18    32 ar  
    48    19    53 1   
    49    19    54 1   
    50    19    55 1   
    51    20    32 ar  
    52    20    56 1   
    53    21    22 1   
    54    21    23 ar  
    55    22    57 1   
    56    22    58 1   
    57    22    59 1   
    58    23    24 1   
    59    24    25 ar  
    60    25    26 ar  
    61    25    60 1   
    62    26    27 ar  
    63    27    36 1   
    64    31    61 1   
@<TRIPOS>SUBSTRUCTURE
     1 81O         1 TEMP              0 ****  ****    0 ROOT
