@<TRIPOS>MOLECULE
81O
   62    64     1     0     0
SMALL
No Charge or Current Charge


@<TRIPOS>ATOM
      1 C1          18.6450    -1.4330    34.0660 c          1 81O       0.718600
      2 C10         16.8290     5.2250    36.5430 ca         1 81O      -0.208000
      3 C11         17.6400     4.0860    36.4190 ca         1 81O      -0.058000
      4 C12         13.3630     3.6190    36.9600 c3         1 81O       0.162300
      5 C13         11.7600     3.4170    38.8790 c          1 81O       0.624700
      6 C15         12.6140     3.7490    41.3050 ca         1 81O       0.192000
      7 C16         12.3600     3.7980    42.6860 ca         1 81O      -0.116000
      8 C17         11.0610     3.5940    43.1950 ca         1 81O      -0.163300
      9 C18         10.0200     3.3230    42.2850 ca         1 81O      -0.092000
     10 C19         10.2690     3.2730    40.9040 ca         1 81O      -0.050000
     11 C2          18.6720    -0.4300    35.1720 ca         1 81O      -0.173600
     12 C20         10.7910     3.6380    44.7050 c3         1 81O       0.357300
     13 C21         14.9880     7.5310    36.5090 c3         1 81O       0.167600
     14 C22         15.1070     7.6580    34.9700 c3         1 81O      -0.108400
     15 C23         13.8020     7.3260    34.2080 c3         1 81O      -0.071400
     16 C24         13.9350     7.5010    32.6830 c3         1 81O      -0.089100
     17 C4          11.5680     3.4860    40.3830 ca         1 81O      -0.158600
     18 C41         18.8910     1.2490    37.3500 ca         1 81O       0.330300
     19 C42         19.0670     2.0950    38.6050 c3         1 81O      -0.133400
     20 C44         19.5780    -0.6510    36.2150 ca         1 81O       0.350900
     21 C45         17.8380     0.7130    35.2130 ca         1 81O      -0.002300
     22 C46         16.8760     1.0190    34.0620 c3         1 81O      -0.038800
     23 C5          17.9440     1.5770    36.3390 cp         1 81O      -0.137000
     24 C6          17.0820     2.7890    36.4690 cp         1 81O      -0.029000
     25 C7          15.6860     2.6660    36.6460 ca         1 81O      -0.055000
     26 C8          14.8620     3.8020    36.7680 ca         1 81O      -0.168300
     27 C9          15.4340     5.0900    36.7130 ca         1 81O       0.148100
     28 F30         10.9280     2.4150    45.2640 f          1 81O      -0.112667
     29 F31          9.5400     4.0670    44.9910 f          1 81O      -0.112667
     30 F32         11.6410     4.4670    45.3550 f          1 81O      -0.112667
     31 N27         13.0210     3.6310    38.3770 ns         1 81O      -0.478900
     32 N43         19.6920     0.1640    37.2860 nb         1 81O      -0.708000
     33 O25         17.5880    -1.9890    33.8110 o          1 81O      -0.712500
     34 O26         19.7010    -1.6990    33.5120 o          1 81O      -0.712500
     35 O28         10.8270     3.1790    38.1230 o          1 81O      -0.598100
     36 O33         14.6000     6.1850    36.8520 os         1 81O      -0.347100
     37 H1          17.3020     6.2010    36.5100 ha         1 81O       0.109000
     38 H2          18.7130     4.2040    36.2820 ha         1 81O       0.118000
     39 H3          12.8120     4.4190    36.4480 h1         1 81O       0.064200
     40 H4          13.0450     2.6620    36.5240 h1         1 81O       0.064200
     41 H5          13.1900     3.9950    43.3610 ha         1 81O       0.149000
     42 H6           9.0080     3.1460    42.6450 ha         1 81O       0.132000
     43 H7           9.4370     3.0630    40.2340 ha         1 81O       0.141000
     44 H8          15.9290     7.8150    36.9950 h1         1 81O       0.048200
     45 H9          14.2200     8.2340    36.8570 h1         1 81O       0.048200
     46 H10         15.9150     7.0130    34.6060 hc         1 81O       0.045200
     47 H11         15.4040     8.6870    34.7340 hc         1 81O       0.045200
     48 H12         12.9930     7.9700    34.5740 hc         1 81O       0.048700
     49 H13         13.5060     6.2910    34.4190 hc         1 81O       0.048700
     50 H14         12.9890     7.2550    32.1870 hc         1 81O       0.029367
     51 H15         14.1940     8.5370    32.4320 hc         1 81O       0.029367
     52 H16         14.7140     6.8410    32.2830 hc         1 81O       0.029367
     53 H17         19.6140     1.5590    39.3900 hc         1 81O       0.034033
     54 H18         19.6220     3.0130    38.3820 hc         1 81O       0.034033
     55 H19         18.0970     2.3820    39.0260 hc         1 81O       0.034033
     56 H20         20.2330    -1.5220    36.2060 h4         1 81O       0.031100
     57 H21         15.9120     0.5220    34.2160 hc         1 81O       0.043033
     58 H22         16.6860     2.0930    33.9590 hc         1 81O       0.043033
     59 H23         17.2770     0.6870    33.0970 hc         1 81O       0.043033
     60 H24         15.2460     1.6720    36.6920 ha         1 81O       0.123000
     61 H25         13.7530     3.8350    39.0440 hn         1 81O       0.319500
     62 F29         13.8870     3.9570    40.9020 f          1 81O      -0.159000
@<TRIPOS>BOND
     1     1    11 1   
     2     1    33 1   
     3     1    34 1   
     4     2     3 ar  
     5     2    27 ar  
     6     2    37 1   
     7     3    24 ar  
     8     3    38 1   
     9     4    26 1   
    10     4    31 1   
    11     4    39 1   
    12     4    40 1   
    13     5    17 1   
    14     5    31 1   
    15     5    35 2   
    16     6     7 ar  
    17     6    17 ar  
    18     6    62 1   
    19     7     8 ar  
    20     7    41 1   
    21     8     9 ar  
    22     8    12 1   
    23     9    10 ar  
    24     9    42 1   
    25    10    17 ar  
    26    10    43 1   
    27    11    20 ar  
    28    11    21 ar  
    29    12    28 1   
    30    12    29 1   
    31    12    30 1   
    32    13    14 1   
    33    13    36 1   
    34    13    44 1   
    35    13    45 1   
    36    14    15 1   
    37    14    46 1   
    38    14    47 1   
    39    15    16 1   
    40    15    48 1   
    41    15    49 1   
    42    16    50 1   
    43    16    51 1   
    44    16    52 1   
    45    18    19 1   
    46    18    23 ar  
    47    18    32 ar  
    48    19    53 1   
    49    19    54 1   
    50    19    55 1   
    51    20    32 ar  
    52    20    56 1   
    53    21    22 1   
    54    21    23 ar  
    55    22    57 1   
    56    22    58 1   
    57    22    59 1   
    58    23    24 1   
    59    24    25 ar  
    60    25    26 ar  
    61    25    60 1   
    62    26    27 ar  
    63    27    36 1   
    64    31    61 1   
@<TRIPOS>SUBSTRUCTURE
     1 81O         1 TEMP              0 ****  ****    0 ROOT
