@<TRIPOS>MOLECULE
81P
   19    19     1     0     0
SMALL
bcc


@<TRIPOS>ATOM
      1 C01         -3.9980     0.7240     0.0510 c3         1 81P       0.216100
      2 N02         -3.1130    -0.3940    -0.1460 nu         1 81P      -0.778600
      3 C03         -1.7520    -0.2620    -0.0750 ca         1 81P       0.134600
      4 C04         -0.9360    -1.4060    -0.0220 ca         1 81P      -0.227500
      5 C05          0.4390    -1.2940     0.0160 ca         1 81P      -0.071000
      6 C06          1.0770    -0.0510    -0.0010 ca         1 81P      -0.166600
      7 C07          0.2650     1.0770    -0.0500 ca         1 81P      -0.071000
      8 C08         -1.1190     0.9890    -0.0830 ca         1 81P      -0.227500
      9 C09          2.5870     0.0600     0.0400 c          1 81P       0.925200
     10 O10          3.2300    -1.0090     0.0940 o          1 81P      -0.834800
     11 O11          3.0710     1.2100     0.0160 o          1 81P      -0.834800
     12 H1          -5.0240     0.3660     0.0090 h1         1 81P       0.018367
     13 H2          -3.8530     1.2310     1.0120 h1         1 81P       0.018367
     14 H3          -3.8760     1.4680    -0.7380 h1         1 81P       0.018367
     15 H4          -3.4760    -1.2880     0.1360 hn         1 81P       0.397800
     16 H5          -1.3990    -2.3880    -0.0110 ha         1 81P       0.101000
     17 H6           1.0390    -2.1940     0.0600 ha         1 81P       0.140500
     18 H7           0.7240     2.0580    -0.0590 ha         1 81P       0.140500
     19 H8          -1.7060     1.8980    -0.1150 ha         1 81P       0.101000
@<TRIPOS>BOND
     1     1     2 1   
     2     1    12 1   
     3     1    13 1   
     4     1    14 1   
     5     2     3 1   
     6     2    15 1   
     7     3     4 ar  
     8     3     8 ar  
     9     4     5 ar  
    10     4    16 1   
    11     5     6 ar  
    12     5    17 1   
    13     6     7 ar  
    14     6     9 1   
    15     7     8 ar  
    16     7    18 1   
    17     8    19 1   
    18     9    10 1   
    19     9    11 1   
@<TRIPOS>SUBSTRUCTURE
     1 81P         1 TEMP              0 ****  ****    0 ROOT
