@<TRIPOS>MOLECULE
81P
   19    19     1     0     0
SMALL
No Charge or Current Charge


@<TRIPOS>ATOM
      1 C01         -4.1030     0.7260     0.0140 c3         1 81P       0.216100
      2 N02         -3.1080    -0.3590     0.0180 nu         1 81P      -0.972200
      3 C03         -1.7190    -0.2360     0.0120 ca         1 81P       0.273000
      4 C04         -0.9370    -1.3990     0.0150 ca         1 81P      -0.209500
      5 C05          0.4670    -1.3150     0.0090 ca         1 81P      -0.053000
      6 C06          1.1130    -0.0580     0.0000 ca         1 81P      -0.166600
      7 C07          0.3150     1.1100    -0.0030 ca         1 81P      -0.053000
      8 C08         -1.0890     1.0190     0.0030 ca         1 81P      -0.209500
      9 C09          2.6290     0.0370    -0.0060 c          1 81P       0.714600
     10 O10          3.2810    -0.9970    -0.0030 o          1 81P      -0.729500
     11 O11          3.1470     1.1450    -0.0130 o          1 81P      -0.729500
     12 H1          -5.1190     0.3110     0.0210 h1         1 81P       0.018367
     13 H2          -3.9810     1.3610     0.9030 h1         1 81P       0.018367
     14 H3          -3.9870     1.3500    -0.8820 h1         1 81P       0.018367
     15 H4          -3.4690    -1.3150     0.0240 hn         1 81P       0.453000
     16 H5          -1.4120    -2.3760     0.0220 ha         1 81P       0.083000
     17 H6           1.0500    -2.2340     0.0120 ha         1 81P       0.122500
     18 H7           0.7790     2.0940    -0.0100 ha         1 81P       0.122500
     19 H8          -1.6750     1.9330     0.0000 ha         1 81P       0.083000
@<TRIPOS>BOND
     1     1     2 1   
     2     1    12 1   
     3     1    13 1   
     4     1    14 1   
     5     2     3 1   
     6     2    15 1   
     7     3     4 ar  
     8     3     8 ar  
     9     4     5 ar  
    10     4    16 1   
    11     5     6 ar  
    12     5    17 1   
    13     6     7 ar  
    14     6     9 1   
    15     7     8 ar  
    16     7    18 1   
    17     8    19 1   
    18     9    10 1   
    19     9    11 1   
@<TRIPOS>SUBSTRUCTURE
     1 81P         1 TEMP              0 ****  ****    0 ROOT
