@<TRIPOS>MOLECULE
81T
   34    34     1     0     0
SMALL
No Charge or Current Charge


@<TRIPOS>ATOM
      1 C10        -29.9500    -2.1170    -0.6600 c5         1 81T       0.178200
      2 C13        -28.7780    -2.2530    -1.7040 c5         1 81T      -0.098400
      3 C01        -27.7110    -1.9950    -6.3570 c3         1 81T      -0.176100
      4 C02        -28.3580    -1.2570    -5.1920 c          1 81T       0.597100
      5 C04        -29.2960    -1.4450    -2.9290 c5         1 81T       0.104700
      6 C05        -30.8220    -1.8120    -2.9420 c5         1 81T       0.160200
      7 C06        -31.6420    -0.8530    -3.8450 c3         1 81T      -0.087600
      8 C07        -31.1610    -3.2730    -3.4020 c3         1 81T      -0.087600
      9 C11        -29.5800    -1.1300     0.4770 c3         1 81T      -0.083600
     10 C12        -30.2700    -3.4870     0.0130 c3         1 81T      -0.083600
     11 N03        -28.6380    -2.0540    -4.1020 ns         1 81T      -0.499900
     12 N08        -31.0540    -1.5210    -1.4950 n3         1 81T      -0.498100
     13 O09        -32.4070    -1.9210    -1.0390 oh         1 81T      -0.471300
     14 O14        -28.6000    -0.0600    -5.2330 o          1 81T      -0.608100
     15 H1         -28.5890    -3.3050    -1.9490 hc         1 81T       0.052700
     16 H2         -27.8280    -1.8540    -1.3310 hc         1 81T       0.052700
     17 H3         -26.8080    -2.5020    -6.0010 hc         1 81T       0.060367
     18 H4         -28.3520    -2.8360    -6.6460 hc         1 81T       0.060367
     19 H5         -27.4990    -1.3370    -7.2080 hc         1 81T       0.060367
     20 H6         -29.1240    -0.3660    -2.8060 h1         1 81T       0.099700
     21 H7         -31.4660     0.1940    -3.5730 hc         1 81T       0.042700
     22 H8         -31.3720    -0.9690    -4.9010 hc         1 81T       0.042700
     23 H9         -32.7180    -1.0420    -3.7560 hc         1 81T       0.042700
     24 H10        -30.5450    -4.0330    -2.9130 hc         1 81T       0.042700
     25 H11        -32.2090    -3.5210    -3.2020 hc         1 81T       0.042700
     26 H12        -31.0070    -3.3920    -4.4810 hc         1 81T       0.042700
     27 H13        -30.4160    -0.9890     1.1720 hc         1 81T       0.041533
     28 H14        -28.7210    -1.4920     1.0560 hc         1 81T       0.041533
     29 H15        -29.3150    -0.1450     0.0750 hc         1 81T       0.041533
     30 H16        -31.0400    -3.3860     0.7870 hc         1 81T       0.041533
     31 H17        -30.6270    -4.2320    -0.7040 hc         1 81T       0.041533
     32 H18        -29.3780    -3.9030     0.4970 hc         1 81T       0.041533
     33 H19        -28.3940    -3.0350    -4.1670 hn         1 81T       0.307500
     34 H20        -32.8370    -1.0780    -0.7620 ho         1 81T       0.452000
@<TRIPOS>BOND
     1     1     2 1   
     2     1     9 1   
     3     1    10 1   
     4     1    12 1   
     5     2     5 1   
     6     2    15 1   
     7     2    16 1   
     8     3     4 1   
     9     3    17 1   
    10     3    18 1   
    11     3    19 1   
    12     4    11 1   
    13     4    14 2   
    14     5     6 1   
    15     5    11 1   
    16     5    20 1   
    17     6     7 1   
    18     6     8 1   
    19     6    12 1   
    20     7    21 1   
    21     7    22 1   
    22     7    23 1   
    23     8    24 1   
    24     8    25 1   
    25     8    26 1   
    26     9    27 1   
    27     9    28 1   
    28     9    29 1   
    29    10    30 1   
    30    10    31 1   
    31    10    32 1   
    32    11    33 1   
    33    12    13 1   
    34    13    34 1   
@<TRIPOS>SUBSTRUCTURE
     1 81T         1 TEMP              0 ****  ****    0 ROOT
