@<TRIPOS>MOLECULE
81T
   34    34     1     0     0
SMALL
abcg2


@<TRIPOS>ATOM
      1 C10        -29.9540    -2.1350    -0.6690 c5         1 81T       0.178200
      2 C13        -28.8210    -2.2750    -1.7140 c5         1 81T      -0.098400
      3 C01        -27.5670    -2.0220    -6.3210 c3         1 81T      -0.176100
      4 C02        -28.2140    -1.2980    -5.1640 c          1 81T       0.597100
      5 C04        -29.3460    -1.5990    -2.9850 c5         1 81T       0.104700
      6 C05        -30.8740    -1.8230    -2.9200 c5         1 81T       0.160200
      7 C06        -31.6420    -0.7950    -3.7430 c3         1 81T      -0.087600
      8 C07        -31.2740    -3.2380    -3.3600 c3         1 81T      -0.087600
      9 C11        -29.5980    -1.1280     0.4270 c3         1 81T      -0.083600
     10 C12        -30.2910    -3.4850    -0.0290 c3         1 81T      -0.083600
     11 N03        -28.7110    -2.0870    -4.1880 ns         1 81T      -0.499900
     12 N08        -31.0620    -1.5450    -1.4830 n3         1 81T      -0.498100
     13 O09        -32.3490    -1.9670    -1.0260 oh         1 81T      -0.471300
     14 O14        -28.2680    -0.0670    -5.1300 o          1 81T      -0.608100
     15 H1         -28.6220    -3.3280    -1.9150 hc         1 81T       0.052700
     16 H2         -27.8900    -1.8230    -1.3740 hc         1 81T       0.052700
     17 H3         -26.5310    -1.6900    -6.4060 hc         1 81T       0.060367
     18 H4         -27.5880    -3.1060    -6.2100 hc         1 81T       0.060367
     19 H5         -28.0820    -1.7460    -7.2420 hc         1 81T       0.060367
     20 H6         -29.1600    -0.5280    -2.9480 h1         1 81T       0.099700
     21 H7         -31.3830     0.2160    -3.4290 hc         1 81T       0.042700
     22 H8         -31.4060    -0.9050    -4.8030 hc         1 81T       0.042700
     23 H9         -32.7180    -0.9340    -3.6220 hc         1 81T       0.042700
     24 H10        -30.6500    -4.0090    -2.9100 hc         1 81T       0.042700
     25 H11        -32.3100    -3.4300    -3.0830 hc         1 81T       0.042700
     26 H12        -31.1900    -3.3250    -4.4440 hc         1 81T       0.042700
     27 H13        -30.4660    -0.9440     1.0640 hc         1 81T       0.041533
     28 H14        -28.7870    -1.5070     1.0530 hc         1 81T       0.041533
     29 H15        -29.2850    -0.1810    -0.0150 hc         1 81T       0.041533
     30 H16        -31.0820    -3.3820     0.7130 hc         1 81T       0.041533
     31 H17        -30.6050    -4.2200    -0.7690 hc         1 81T       0.041533
     32 H18        -29.3990    -3.8670     0.4730 hc         1 81T       0.041533
     33 H19        -28.6130    -3.0840    -4.2960 hn         1 81T       0.307500
     34 H20        -32.7760    -1.1440    -0.7570 ho         1 81T       0.452000
@<TRIPOS>BOND
     1     1     2 1   
     2     1     9 1   
     3     1    10 1   
     4     1    12 1   
     5     2     5 1   
     6     2    15 1   
     7     2    16 1   
     8     3     4 1   
     9     3    17 1   
    10     3    18 1   
    11     3    19 1   
    12     4    11 1   
    13     4    14 2   
    14     5     6 1   
    15     5    11 1   
    16     5    20 1   
    17     6     7 1   
    18     6     8 1   
    19     6    12 1   
    20     7    21 1   
    21     7    22 1   
    22     7    23 1   
    23     8    24 1   
    24     8    25 1   
    25     8    26 1   
    26     9    27 1   
    27     9    28 1   
    28     9    29 1   
    29    10    30 1   
    30    10    31 1   
    31    10    32 1   
    32    11    33 1   
    33    12    13 1   
    34    13    34 1   
@<TRIPOS>SUBSTRUCTURE
     1 81T         1 TEMP              0 ****  ****    0 ROOT
