@<TRIPOS>MOLECULE
81U
   25    27     1     0     0
SMALL
No Charge or Current Charge


@<TRIPOS>ATOM
      1 OAB         -4.0340     1.5200     0.1290 oh         1 81U      -0.534100
      2 CAL         -2.8740     0.7930     0.0660 ca         1 81U       0.131100
      3 CAH         -1.6490     1.4730     0.0350 ca         1 81U      -0.128000
      4 CAP         -0.4340     0.7680     0.0220 ca         1 81U       0.262000
      5 NAJ          0.7350     1.4570    -0.0060 nb         1 81U      -0.627000
      6 CAN          1.8840     0.7320    -0.0120 ca         1 81U       0.240000
      7 CAF          3.1240     1.3980    -0.0410 ca         1 81U      -0.081000
      8 CAD          4.3310     0.6790    -0.0480 ca         1 81U      -0.102000
      9 CAC          4.3100    -0.7230    -0.0260 ca         1 81U      -0.102000
     10 CAE          3.0810    -1.4050     0.0030 ca         1 81U      -0.081000
     11 CAM          1.8620    -0.7000     0.0110 ca         1 81U       0.236000
     12 NAI          0.6910    -1.3890     0.0390 nb         1 81U      -0.628000
     13 CAO         -0.4570    -0.6640     0.0450 ca         1 81U       0.252000
     14 CAG         -1.6930    -1.3350     0.0710 ca         1 81U      -0.136000
     15 CAK         -2.9030    -0.6260     0.0700 ca         1 81U       0.214000
     16 NAA         -4.0930    -1.3350     0.0670 nv         1 81U      -1.073000
     17 H1          -4.7450     0.9070     0.4150 ho         1 81U       0.480000
     18 H2          -1.6370     2.5590     0.0320 ha         1 81U       0.150000
     19 H3           3.1470     2.4840    -0.0580 ha         1 81U       0.133000
     20 H4           5.2810     1.2090    -0.0700 ha         1 81U       0.118000
     21 H5           5.2430    -1.2830    -0.0310 ha         1 81U       0.118000
     22 H6           3.0710    -2.4910     0.0200 ha         1 81U       0.132000
     23 H7          -1.7030    -2.4200     0.0810 ha         1 81U       0.133000
     24 H8          -4.8890    -0.9600    -0.4480 hn         1 81U       0.446000
     25 H9          -4.0450    -2.3540     0.0680 hn         1 81U       0.446000
@<TRIPOS>BOND
     1     1     2 1   
     2     1    17 1   
     3     2     3 ar  
     4     2    15 ar  
     5     3     4 ar  
     6     3    18 1   
     7     4     5 ar  
     8     4    13 ar  
     9     5     6 ar  
    10     6     7 ar  
    11     6    11 ar  
    12     7     8 ar  
    13     7    19 1   
    14     8     9 ar  
    15     8    20 1   
    16     9    10 ar  
    17     9    21 1   
    18    10    11 ar  
    19    10    22 1   
    20    11    12 ar  
    21    12    13 ar  
    22    13    14 ar  
    23    14    15 ar  
    24    14    23 1   
    25    15    16 1   
    26    16    24 1   
    27    16    25 1   
@<TRIPOS>SUBSTRUCTURE
     1 81U         1 TEMP              0 ****  ****    0 ROOT
