@<TRIPOS>MOLECULE
81U
   25    27     1     0     0
SMALL
abcg2


@<TRIPOS>ATOM
      1 OAB         -3.9830     1.4630     0.1550 oh         1 81U      -0.534100
      2 CAL         -2.8270     0.7880     0.0840 ca         1 81U       0.131100
      3 CAH         -1.6490     1.4640     0.0400 ca         1 81U      -0.128000
      4 CAP         -0.4160     0.7590     0.0130 ca         1 81U       0.262000
      5 NAJ          0.7240     1.4300    -0.0230 nb         1 81U      -0.627000
      6 CAN          1.8590     0.7260    -0.0220 ca         1 81U       0.240000
      7 CAF          3.1070     1.4030    -0.0590 ca         1 81U      -0.081000
      8 CAD          4.2710     0.6930    -0.0570 ca         1 81U      -0.102000
      9 CAC          4.2540    -0.7260    -0.0170 ca         1 81U      -0.102000
     10 CAE          3.0740    -1.4070     0.0180 ca         1 81U      -0.081000
     11 CAM          1.8420    -0.7010     0.0170 ca         1 81U       0.236000
     12 NAI          0.6920    -1.3770     0.0530 nb         1 81U      -0.628000
     13 CAO         -0.4330    -0.6780     0.0530 ca         1 81U       0.252000
     14 CAG         -1.6820    -1.3530     0.0610 ca         1 81U      -0.136000
     15 CAK         -2.8570    -0.6590     0.0560 ca         1 81U       0.214000
     16 NAA         -4.1030    -1.2560     0.1030 nv         1 81U      -1.073000
     17 H1          -4.6880     0.8850     0.4760 ho         1 81U       0.480000
     18 H2          -1.6330     2.5460     0.0580 ha         1 81U       0.150000
     19 H3           3.1070     2.4850    -0.0890 ha         1 81U       0.133000
     20 H4           5.2200     1.2110    -0.0860 ha         1 81U       0.118000
     21 H5           5.1910    -1.2660    -0.0140 ha         1 81U       0.118000
     22 H6           3.0490    -2.4890     0.0490 ha         1 81U       0.132000
     23 H7          -1.6840    -2.4360     0.0490 ha         1 81U       0.133000
     24 H8          -4.7560    -0.9470    -0.6040 hn         1 81U       0.446000
     25 H9          -4.0740    -2.2650     0.1190 hn         1 81U       0.446000
@<TRIPOS>BOND
     1     1     2 1   
     2     1    17 1   
     3     2     3 ar  
     4     2    15 ar  
     5     3     4 ar  
     6     3    18 1   
     7     4     5 ar  
     8     4    13 ar  
     9     5     6 ar  
    10     6     7 ar  
    11     6    11 ar  
    12     7     8 ar  
    13     7    19 1   
    14     8     9 ar  
    15     8    20 1   
    16     9    10 ar  
    17     9    21 1   
    18    10    11 ar  
    19    10    22 1   
    20    11    12 ar  
    21    12    13 ar  
    22    13    14 ar  
    23    14    15 ar  
    24    14    23 1   
    25    15    16 1   
    26    16    24 1   
    27    16    25 1   
@<TRIPOS>SUBSTRUCTURE
     1 81U         1 TEMP              0 ****  ****    0 ROOT
