@<TRIPOS>MOLECULE
81V
   62    64     1     0     0
SMALL
abcg2


@<TRIPOS>ATOM
      1 C10          5.0770    -0.9860    -0.5140 ca         1 81V      -0.086500
      2 C13          6.1120    -0.2990     1.9620 ca         1 81V      -0.102000
      3 C15          8.4720    -0.5980     1.1210 c3         1 81V       0.213100
      4 C17         10.5910    -0.2010     0.0580 c6         1 81V       0.126800
      5 C20          9.6250     2.1150    -1.1730 c6         1 81V       0.153100
      6 C21          8.9130     1.4880     0.0090 c6         1 81V       0.126800
      7 C22         -0.3230    -1.1310    -1.2860 ca         1 81V      -0.101500
      8 C26         -6.3000     1.9820    -0.2300 c          1 81V       0.589100
      9 O01         -4.4890    -1.3210    -1.7240 o          1 81V      -0.581100
     10 C03         -2.5600    -0.6650    -0.5160 ca         1 81V      -0.154600
     11 C04         -2.0390    -0.2720     0.7160 ca         1 81V      -0.068500
     12 C05         -0.6750    -0.2980     0.9460 ca         1 81V      -0.101500
     13 C06          0.2050    -0.7170    -0.0580 ca         1 81V       0.065000
     14 C07          1.6060    -0.7130     0.1600 cg         1 81V      -0.125000
     15 C08          2.8010    -0.7050     0.3380 ch         1 81V      -0.077000
     16 C09          4.2060    -0.6800     0.5380 ca         1 81V       0.018000
     17 C11          6.4440    -0.9440    -0.3210 ca         1 81V      -0.102000
     18 C12          6.9810    -0.6050     0.9210 ca         1 81V      -0.074300
     19 C14          4.7400    -0.3360     1.7810 ca         1 81V      -0.086500
     20 N16          9.1640     0.0580     0.0370 n3         1 81V      -0.721600
     21 C18         11.2540     0.4730    -1.1290 c6         1 81V       0.153100
     22 O19         11.0060     1.8560    -1.1470 os         1 81V      -0.446000
     23 C23         -1.6860    -1.1140    -1.5040 ca         1 81V      -0.068500
     24 N24         -4.7750     0.1750    -0.0530 ns         1 81V      -0.512900
     25 C25         -6.1660     0.4610    -0.3430 c3         1 81V      -0.019300
     26 N28         -7.2310     2.5170    -1.0490 ns         1 81V      -0.368400
     27 O29         -7.3040     3.8700    -1.1850 oh         1 81V      -0.430100
     28 C30         -7.1110    -0.2790     0.6510 c3         1 81V       0.142000
     29 O31         -6.7520     0.0050     1.9720 oh         1 81V      -0.633000
     30 C32         -6.9800    -1.7930     0.4130 c3         1 81V       0.149300
     31 C35         -8.5640     0.1450     0.4830 c3         1 81V      -0.091100
     32 F33         -7.7620    -2.4670     1.2880 f          1 81V      -0.114000
     33 F34         -7.4130    -2.1070    -0.8350 f          1 81V      -0.114000
     34 H1           4.6740    -1.2520    -1.4810 ha         1 81V       0.120000
     35 H2           6.5100    -0.0180     2.9290 ha         1 81V       0.123000
     36 H3           8.7130    -0.1550     2.1030 h1         1 81V       0.041200
     37 H4           8.8180    -1.6350     1.1680 h1         1 81V       0.041200
     38 H5          11.0620     0.1520     0.9920 h1         1 81V       0.042950
     39 H6          10.7650    -1.2780    -0.0030 h1         1 81V       0.042950
     40 H7           9.1750     1.7370    -2.1030 h1         1 81V       0.050700
     41 H8           9.4930     3.1980    -1.1540 h1         1 81V       0.050700
     42 H9           9.2430     1.9750     0.9440 h1         1 81V       0.042950
     43 H10          7.8410     1.6730    -0.0900 h1         1 81V       0.042950
     44 H11          0.3450    -1.4620    -2.0690 ha         1 81V       0.126500
     45 H12         -2.6810     0.0450     1.5280 ha         1 81V       0.127500
     46 H13         -0.2890     0.0110     1.9070 ha         1 81V       0.126500
     47 H14          7.1140    -1.1610    -1.1420 ha         1 81V       0.123000
     48 H15          4.0790    -0.0900     2.6010 ha         1 81V       0.120000
     49 H17         12.3350     0.3350    -1.0810 h1         1 81V       0.050700
     50 H18         10.8940     0.0020    -2.0550 h1         1 81V       0.050700
     51 H19         -2.0760    -1.4400    -2.4580 ha         1 81V       0.127500
     52 H20         -4.3060     0.9050     0.4670 hn         1 81V       0.338500
     53 H21         -6.3890     0.1270    -1.3600 h1         1 81V       0.102700
     54 H22         -7.5740     2.0160    -1.8540 hn         1 81V       0.341500
     55 H23         -7.9250     4.1720    -0.5130 ho         1 81V       0.457000
     56 H24         -5.8160    -0.1800     2.1030 ho         1 81V       0.457000
     57 H25         -5.9570    -2.1630     0.5290 h2         1 81V       0.068700
     58 H26         -8.9050     0.0240    -0.5440 hc         1 81V       0.059367
     59 H27         -9.2110    -0.4530     1.1210 hc         1 81V       0.059367
     60 H28         -8.6970     1.1850     0.7700 hc         1 81V       0.059367
     61 C02         -4.0170    -0.6420    -0.8290 c          1 81V       0.607700
     62 O27         -5.6380     2.6230     0.5530 o          1 81V      -0.560100
@<TRIPOS>BOND
     1     1    16 ar  
     2     1    17 ar  
     3     1    34 1   
     4     2    18 ar  
     5     2    19 ar  
     6     2    35 1   
     7     3    18 1   
     8     3    20 1   
     9     3    36 1   
    10     3    37 1   
    11     4    20 1   
    12     4    21 1   
    13     4    38 1   
    14     4    39 1   
    15     5     6 1   
    16     5    22 1   
    17     5    40 1   
    18     5    41 1   
    19     6    20 1   
    20     6    42 1   
    21     6    43 1   
    22     7    13 ar  
    23     7    23 ar  
    24     7    44 1   
    25     8    25 1   
    26     8    26 1   
    27     8    62 2   
    28     9    61 2   
    29    10    11 ar  
    30    10    23 ar  
    31    10    61 1   
    32    11    12 ar  
    33    11    45 1   
    34    12    13 ar  
    35    12    46 1   
    36    13    14 1   
    37    14    15 3   
    38    15    16 1   
    39    16    19 ar  
    40    17    18 ar  
    41    17    47 1   
    42    19    48 1   
    43    21    22 1   
    44    21    49 1   
    45    21    50 1   
    46    23    51 1   
    47    24    25 1   
    48    24    52 1   
    49    24    61 1   
    50    25    28 1   
    51    25    53 1   
    52    26    27 1   
    53    26    54 1   
    54    27    55 1   
    55    28    29 1   
    56    28    30 1   
    57    28    31 1   
    58    29    56 1   
    59    30    32 1   
    60    30    33 1   
    61    30    57 1   
    62    31    58 1   
    63    31    59 1   
    64    31    60 1   
@<TRIPOS>SUBSTRUCTURE
     1 81V         1 TEMP              0 ****  ****    0 ROOT
