@<TRIPOS>MOLECULE
81V
   62    64     1     0     0
SMALL
No Charge or Current Charge


@<TRIPOS>ATOM
      1 C10          5.0930    -1.4000    -0.4980 ca         1 81V      -0.086500
      2 C13          6.2110    -0.1400     1.7510 ca         1 81V      -0.102000
      3 C15          8.5630    -0.8270     1.0440 c3         1 81V       0.213100
      4 C17         10.7950    -0.2030     0.1630 c6         1 81V       0.126800
      5 C20          9.7620     2.2320    -1.0050 c6         1 81V       0.153100
      6 C21          8.9540     1.4290     0.0580 c6         1 81V       0.126800
      7 C22         -0.3540    -1.4160    -1.2060 ca         1 81V      -0.101500
      8 C26         -6.5850     2.0800    -0.0830 c          1 81V       0.589100
      9 O01         -4.5760    -1.1980    -1.7940 o          1 81V      -0.581100
     10 C03         -2.5730    -0.5300    -0.6530 ca         1 81V      -0.154600
     11 C04         -1.9750     0.2590     0.3620 ca         1 81V      -0.068500
     12 C05         -0.5880     0.2060     0.5840 ca         1 81V      -0.101500
     13 C06          0.2260    -0.6300    -0.1980 ca         1 81V       0.065000
     14 C07          1.6410    -0.6800     0.0320 cg         1 81V      -0.125000
     15 C08          2.8470    -0.7150     0.2170 ch         1 81V      -0.077000
     16 C09          4.2560    -0.7430     0.4230 ca         1 81V       0.018000
     17 C11          6.4840    -1.4260    -0.2950 ca         1 81V      -0.102000
     18 C12          7.0520    -0.7970     0.8300 ca         1 81V      -0.074300
     19 C14          4.8200    -0.1130     1.5480 ca         1 81V      -0.086500
     20 N16          9.3140    -0.0250     0.0480 n3         1 81V      -0.721600
     21 C18         11.5630     0.6330    -0.9040 c6         1 81V       0.153100
     22 O19         11.1830     2.0280    -0.8170 os         1 81V      -0.446000
     23 C23         -1.7410    -1.3670    -1.4320 ca         1 81V      -0.068500
     24 N24         -4.8250     0.3410    -0.1470 ns         1 81V      -0.512900
     25 C25         -6.2960     0.5630    -0.2860 c3         1 81V      -0.019300
     26 N28         -7.6510     2.5940    -0.8200 ns         1 81V      -0.368400
     27 O29         -7.8530     4.0260    -0.9380 oh         1 81V      -0.430100
     28 C30         -7.1270    -0.3710     0.6740 c3         1 81V       0.142000
     29 O31         -6.5520    -0.2850     1.9880 oh         1 81V      -0.633000
     30 C32         -7.0480    -1.8630     0.1940 c3         1 81V       0.149300
     31 C35         -8.6120     0.0700     0.8130 c3         1 81V      -0.091100
     32 F33         -7.6800    -2.6930     1.0600 f          1 81V      -0.114000
     33 F34         -7.6520    -2.0130    -1.0090 f          1 81V      -0.114000
     34 H1           4.6680    -1.8880    -1.3720 ha         1 81V       0.120000
     35 H2           6.6350     0.3530     2.6230 ha         1 81V       0.123000
     36 H3           8.7920    -0.4720     2.0590 h1         1 81V       0.041200
     37 H4           8.8880    -1.8750     0.9950 h1         1 81V       0.041200
     38 H5          11.1390     0.1020     1.1630 h1         1 81V       0.042950
     39 H6          11.0640    -1.2630     0.0410 h1         1 81V       0.042950
     40 H7           9.4790     1.9050    -2.0160 h1         1 81V       0.050700
     41 H8           9.5360     3.3030    -0.9160 h1         1 81V       0.050700
     42 H9           9.1490     1.8630     1.0500 h1         1 81V       0.042950
     43 H10          7.8820     1.5640    -0.1470 h1         1 81V       0.042950
     44 H11          0.2680    -2.0670    -1.8160 ha         1 81V       0.126500
     45 H12         -2.5670     0.9180     0.9910 ha         1 81V       0.127500
     46 H13         -0.1450     0.8180     1.3670 ha         1 81V       0.126500
     47 H14          7.1250    -1.9310    -1.0140 ha         1 81V       0.123000
     48 H15          4.1810     0.3980     2.2660 ha         1 81V       0.120000
     49 H17         12.6460     0.5440    -0.7410 h1         1 81V       0.050700
     50 H18         11.3350     0.2570    -1.9110 h1         1 81V       0.050700
     51 H19         -2.1660    -1.9870    -2.2190 ha         1 81V       0.127500
     52 H20         -4.3170     0.9470     0.4880 hn         1 81V       0.338500
     53 H21         -6.5840     0.3400    -1.3220 h1         1 81V       0.102700
     54 H22         -8.0870     2.0200    -1.5410 hn         1 81V       0.341500
     55 H23         -8.8070     4.1470    -0.7170 ho         1 81V       0.457000
     56 H24         -5.5970    -0.4910     1.8970 ho         1 81V       0.457000
     57 H25         -6.0050    -2.1840     0.1090 h2         1 81V       0.068700
     58 H26         -9.1080     0.1030    -0.1640 hc         1 81V       0.059367
     59 H27         -9.1720    -0.6270     1.4480 hc         1 81V       0.059367
     60 H28         -8.6960     1.0590     1.2780 hc         1 81V       0.059367
     61 C02         -4.0630    -0.5060    -0.9270 c          1 81V       0.607700
     62 O27         -5.9010     2.7900     0.6490 o          1 81V      -0.560100
@<TRIPOS>BOND
     1     1    16 ar  
     2     1    17 ar  
     3     1    34 1   
     4     2    18 ar  
     5     2    19 ar  
     6     2    35 1   
     7     3    18 1   
     8     3    20 1   
     9     3    36 1   
    10     3    37 1   
    11     4    20 1   
    12     4    21 1   
    13     4    38 1   
    14     4    39 1   
    15     5     6 1   
    16     5    22 1   
    17     5    40 1   
    18     5    41 1   
    19     6    20 1   
    20     6    42 1   
    21     6    43 1   
    22     7    13 ar  
    23     7    23 ar  
    24     7    44 1   
    25     8    25 1   
    26     8    26 1   
    27     8    62 2   
    28     9    61 2   
    29    10    11 ar  
    30    10    23 ar  
    31    10    61 1   
    32    11    12 ar  
    33    11    45 1   
    34    12    13 ar  
    35    12    46 1   
    36    13    14 1   
    37    14    15 3   
    38    15    16 1   
    39    16    19 ar  
    40    17    18 ar  
    41    17    47 1   
    42    19    48 1   
    43    21    22 1   
    44    21    49 1   
    45    21    50 1   
    46    23    51 1   
    47    24    25 1   
    48    24    52 1   
    49    24    61 1   
    50    25    28 1   
    51    25    53 1   
    52    26    27 1   
    53    26    54 1   
    54    27    55 1   
    55    28    29 1   
    56    28    30 1   
    57    28    31 1   
    58    29    56 1   
    59    30    32 1   
    60    30    33 1   
    61    30    57 1   
    62    31    58 1   
    63    31    59 1   
    64    31    60 1   
@<TRIPOS>SUBSTRUCTURE
     1 81V         1 TEMP              0 ****  ****    0 ROOT
