@<TRIPOS>MOLECULE
81X
   22    23     1     0     0
SMALL
No Charge or Current Charge


@<TRIPOS>ATOM
      1 N3         -26.3990   -42.0730   -10.6810 ns         1 81X      -0.240900
      2 C5         -28.4870   -42.9790   -10.1520 cc         1 81X       0.362900
      3 C6         -29.9410   -42.7820    -9.6970 c3         1 81X       0.132500
      4 C8         -27.9430   -44.3330   -10.4330 ca         1 81X      -0.114900
      5 C10        -28.1970   -46.7690   -10.5480 ca         1 81X      -0.083000
      6 C13        -26.5980   -44.4770   -10.8560 ca         1 81X      -0.146600
      7 C11        -26.8680   -46.8980   -10.9760 ca         1 81X      -0.115000
      8 C12        -26.0680   -45.7560   -11.1280 ca         1 81X      -0.049000
      9 C2         -25.7480   -43.2480   -11.0000 c          1 81X       0.553600
     10 C9         -28.7320   -45.4980   -10.2760 ca         1 81X      -0.106000
     11 N4         -27.7050   -41.8960   -10.2680 nd         1 81X      -0.402300
     12 N7         -30.4780   -41.3820    -9.7240 n8         1 81X      -0.981200
     13 O1         -24.5800   -43.2660   -11.3640 o          1 81X      -0.544000
     14 H3         -25.8180   -41.2440   -10.7720 hn         1 81X       0.354500
     15 H61        -30.5940   -43.3930   -10.3340 h1         1 81X       0.040200
     16 H62        -30.0280   -43.1610    -8.6700 h1         1 81X       0.040200
     17 H10        -28.8160   -47.6560   -10.4250 ha         1 81X       0.118000
     18 H11        -26.4560   -47.8830   -11.1850 ha         1 81X       0.122000
     19 H12        -25.0350   -45.8660   -11.4550 ha         1 81X       0.141000
     20 H9         -29.7640   -45.4370    -9.9410 ha         1 81X       0.118000
     21 H73        -31.3970   -41.3600    -9.2650 hn         1 81X       0.401000
     22 H72        -29.8890   -40.7890    -9.1250 hn         1 81X       0.401000
@<TRIPOS>BOND
     1     1     9 1   
     2     1    11 1   
     3     1    14 1   
     4     2     3 1   
     5     2     4 1   
     6     2    11 2   
     7     3    12 1   
     8     3    15 1   
     9     3    16 1   
    10     4     6 ar  
    11     4    10 ar  
    12     5     7 ar  
    13     5    10 ar  
    14     5    17 1   
    15     6     8 ar  
    16     6     9 1   
    17     7     8 ar  
    18     7    18 1   
    19     8    19 1   
    20     9    13 2   
    21    10    20 1   
    22    12    21 1   
    23    12    22 1   
@<TRIPOS>SUBSTRUCTURE
     1 81X         1 TEMP              0 ****  ****    0 ROOT
