@<TRIPOS>MOLECULE
81X
   22    23     1     0     0
SMALL
bcc


@<TRIPOS>ATOM
      1 N3         -26.4790   -42.1020   -10.7230 ns         1 81X      -0.307900
      2 C5         -28.4870   -42.9920   -10.1960 cc         1 81X       0.362900
      3 C6         -29.9070   -42.7970    -9.7430 c3         1 81X       0.132500
      4 C8         -27.9730   -44.3270   -10.4310 ca         1 81X      -0.114900
      5 C10        -28.2010   -46.7240   -10.5190 ca         1 81X      -0.101000
      6 C13        -26.6380   -44.4580   -10.8350 ca         1 81X      -0.146600
      7 C11        -26.8690   -46.8450   -10.9210 ca         1 81X      -0.133000
      8 C12        -26.0900   -45.7180   -11.0790 ca         1 81X      -0.067000
      9 C2         -25.8160   -43.2590   -11.0020 c          1 81X       0.696100
     10 C9         -28.7500   -45.4820   -10.2760 ca         1 81X      -0.124000
     11 N4         -27.7520   -41.9500   -10.3390 nd         1 81X      -0.402300
     12 N7         -30.2770   -41.4030    -9.6420 n8         1 81X      -0.870800
     13 O1         -24.6460   -43.2570   -11.3530 o          1 81X      -0.619500
     14 H3         -25.9690   -41.2340   -10.8150 hn         1 81X       0.354500
     15 H61        -30.5680   -43.2780   -10.4710 h1         1 81X       0.040200
     16 H62        -30.0360   -43.3660    -8.8090 h1         1 81X       0.040200
     17 H10        -28.8080   -47.6110   -10.3970 ha         1 81X       0.136000
     18 H11        -26.4490   -47.8240   -11.1100 ha         1 81X       0.140000
     19 H12        -25.0580   -45.8030   -11.3900 ha         1 81X       0.159000
     20 H9         -29.7830   -45.4110    -9.9640 ha         1 81X       0.136000
     21 H73        -31.2450   -41.3490    -9.3510 hn         1 81X       0.345800
     22 H72        -29.7400   -40.9580    -8.9090 hn         1 81X       0.345800
@<TRIPOS>BOND
     1     1     9 1   
     2     1    11 1   
     3     1    14 1   
     4     2     3 1   
     5     2     4 1   
     6     2    11 2   
     7     3    12 1   
     8     3    15 1   
     9     3    16 1   
    10     4     6 ar  
    11     4    10 ar  
    12     5     7 ar  
    13     5    10 ar  
    14     5    17 1   
    15     6     8 ar  
    16     6     9 1   
    17     7     8 ar  
    18     7    18 1   
    19     8    19 1   
    20     9    13 2   
    21    10    20 1   
    22    12    21 1   
    23    12    22 1   
@<TRIPOS>SUBSTRUCTURE
     1 81X         1 TEMP              0 ****  ****    0 ROOT
