@<TRIPOS>MOLECULE
81Y
   47    50     1     0     0
SMALL
No Charge or Current Charge


@<TRIPOS>ATOM
      1 C9           6.2080     1.4310    -1.7860 c3         1 81Y      -0.108100
      2 C7           6.1160     1.4220    -0.2440 c3         1 81Y       0.182300
      3 C8           6.6210     2.7390     0.3750 c3         1 81Y      -0.108100
      4 O            4.7310     1.2930     0.1340 os         1 81Y      -0.358100
      5 C5           4.0100     0.1200     0.0090 ca         1 81Y       0.116100
      6 C4           4.6190    -1.1320    -0.2930 ca         1 81Y      -0.145000
      7 C3           3.8300    -2.2970    -0.4220 ca         1 81Y      -0.096000
      8 C2           2.4490    -2.1790    -0.2210 ca         1 81Y      -0.075200
      9 N1           1.4620    -3.1410    -0.3330 na         1 81Y      -0.054400
     10 N            0.1980    -2.5750    -0.0890 nc         1 81Y      -0.501100
     11 C6           2.6140     0.1920     0.2050 ca         1 81Y      -0.087000
     12 C1           1.8670    -0.9930     0.1000 ca         1 81Y      -0.171900
     13 C            0.4500    -1.2850     0.1970 cd         1 81Y       0.383500
     14 C10         -0.6170    -0.3200     0.5480 ca         1 81Y      -0.015900
     15 C14         -1.9200    -0.4560     0.0300 ca         1 81Y      -0.206000
     16 C13         -2.9290     0.4460     0.4180 ca         1 81Y       0.610900
     17 N2          -2.7110     1.4400     1.2960 nb         1 81Y      -0.741000
     18 C12         -1.4760     1.5570     1.8250 ca         1 81Y       0.379900
     19 C11         -0.4150     0.7030     1.4920 ca         1 81Y      -0.207000
     20 N3          -4.2520     0.3720    -0.0700 nh         1 81Y      -0.774300
     21 C18         -4.7360    -0.8440    -0.8060 c6         1 81Y       0.177800
     22 C17         -6.2900    -0.9620    -0.8260 c6         1 81Y       0.143600
     23 O1          -6.8950     0.2690    -1.2790 os         1 81Y      -0.443000
     24 C16         -6.5670     1.3880    -0.4240 c6         1 81Y       0.143600
     25 C15         -5.0280     1.6250    -0.3830 c6         1 81Y       0.177800
     26 H9           7.2450     1.5910    -2.1050 hc         1 81Y       0.046700
     27 H10          5.8710     0.4790    -2.2120 hc         1 81Y       0.046700
     28 H8           5.5930     2.2350    -2.2080 hc         1 81Y       0.046700
     29 H4           6.7190     0.6020     0.1670 h1         1 81Y       0.037700
     30 H6           6.0420     3.5930     0.0040 hc         1 81Y       0.046700
     31 H7           6.5340     2.7080     1.4670 hc         1 81Y       0.046700
     32 H5           7.6750     2.9020     0.1230 hc         1 81Y       0.046700
     33 H2           5.6910    -1.2180    -0.4390 ha         1 81Y       0.118000
     34 H1           4.2830    -3.2530    -0.6760 ha         1 81Y       0.120000
     35 H            1.5860    -4.1230    -0.5750 hn         1 81Y       0.376000
     36 H3           2.1440     1.1480     0.4140 ha         1 81Y       0.136000
     37 H13         -2.1310    -1.2440    -0.6830 ha         1 81Y       0.132000
     38 H12         -1.3350     2.3570     2.5510 h4         1 81Y       0.015100
     39 H11          0.5410     0.8330     1.9880 ha         1 81Y       0.129000
     40 H20         -4.3720    -0.8230    -1.8440 h1         1 81Y       0.055700
     41 H21         -4.3410    -1.7570    -0.3380 h1         1 81Y       0.055700
     42 H18         -6.5920    -1.7800    -1.4950 h1         1 81Y       0.052450
     43 H19         -6.6580    -1.1950     0.1830 h1         1 81Y       0.052450
     44 H17         -7.0720     2.2890    -0.8000 h1         1 81Y       0.052450
     45 H16         -6.9400     1.1880     0.5900 h1         1 81Y       0.052450
     46 H15         -4.8400     2.4120     0.3620 h1         1 81Y       0.055700
     47 H14         -4.7090     2.0240    -1.3570 h1         1 81Y       0.055700
@<TRIPOS>BOND
     1     1     2 1   
     2     1    26 1   
     3     1    27 1   
     4     1    28 1   
     5     2     3 1   
     6     2     4 1   
     7     2    29 1   
     8     3    30 1   
     9     3    31 1   
    10     3    32 1   
    11     4     5 1   
    12     5     6 ar  
    13     5    11 ar  
    14     6     7 ar  
    15     6    33 1   
    16     7     8 ar  
    17     7    34 1   
    18     8     9 1   
    19     8    12 ar  
    20     9    10 1   
    21     9    35 1   
    22    10    13 2   
    23    11    12 ar  
    24    11    36 1   
    25    12    13 1   
    26    13    14 1   
    27    14    15 ar  
    28    14    19 ar  
    29    15    16 ar  
    30    15    37 1   
    31    16    17 ar  
    32    16    20 1   
    33    17    18 ar  
    34    18    19 ar  
    35    18    38 1   
    36    19    39 1   
    37    20    21 1   
    38    20    25 1   
    39    21    22 1   
    40    21    40 1   
    41    21    41 1   
    42    22    23 1   
    43    22    42 1   
    44    22    43 1   
    45    23    24 1   
    46    24    25 1   
    47    24    44 1   
    48    24    45 1   
    49    25    46 1   
    50    25    47 1   
@<TRIPOS>SUBSTRUCTURE
     1 81Y         1 TEMP              0 ****  ****    0 ROOT
