@<TRIPOS>MOLECULE
81Y
   47    50     1     0     0
SMALL
bcc


@<TRIPOS>ATOM
      1 C9           6.2120     1.3040    -1.7300 c3         1 81Y      -0.108100
      2 C7           6.1240     1.2900    -0.2130 c3         1 81Y       0.159100
      3 C8           6.7170     2.5430     0.3980 c3         1 81Y      -0.108100
      4 O            4.7660     1.2440     0.2270 os         1 81Y      -0.334900
      5 C5           4.0110     0.1400     0.0470 ca         1 81Y       0.116100
      6 C4           4.5500    -1.1340    -0.2560 ca         1 81Y      -0.163000
      7 C3           3.7460    -2.2400    -0.4030 ca         1 81Y      -0.114000
      8 C2           2.3740    -2.0680    -0.2250 ca         1 81Y      -0.075200
      9 N1           1.3300    -2.9310    -0.3130 na         1 81Y      -0.004100
     10 N            0.1660    -2.3440    -0.0620 nc         1 81Y      -0.501100
     11 C6           2.6480     0.3010     0.2060 ca         1 81Y      -0.105000
     12 C1           1.8190    -0.8200     0.0930 ca         1 81Y      -0.171900
     13 C            0.4140    -1.0740     0.1860 cd         1 81Y       0.383500
     14 C10         -0.6730    -0.1470     0.5000 ca         1 81Y      -0.015900
     15 C14         -1.9450    -0.3580    -0.0120 ca         1 81Y      -0.289300
     16 C13         -2.9770     0.5370     0.3160 ca         1 81Y       0.676200
     17 N2          -2.7460     1.6130     1.0680 nb         1 81Y      -0.741000
     18 C12         -1.5320     1.8030     1.5500 ca         1 81Y       0.445200
     19 C11         -0.4600     0.9610     1.3200 ca         1 81Y      -0.290300
     20 N3          -4.2720     0.3510    -0.1050 nh         1 81Y      -0.774300
     21 C18         -4.6140    -0.7340    -0.9970 c6         1 81Y       0.177800
     22 C17         -6.0980    -1.0490    -0.8940 c6         1 81Y       0.120400
     23 O1          -6.8990     0.0830    -1.0980 os         1 81Y      -0.396600
     24 C16         -6.6000     1.0680    -0.1400 c6         1 81Y       0.120400
     25 C15         -5.1510     1.5030    -0.2150 c6         1 81Y       0.177800
     26 H9           7.2570     1.3500    -2.0390 hc         1 81Y       0.046700
     27 H10          5.7790     0.4130    -2.1860 hc         1 81Y       0.046700
     28 H8           5.7020     2.1770    -2.1370 hc         1 81Y       0.046700
     29 H4           6.6710     0.4270     0.1830 h1         1 81Y       0.037700
     30 H6           6.2250     3.4400     0.0180 hc         1 81Y       0.046700
     31 H7           6.6310     2.5340     1.4840 hc         1 81Y       0.046700
     32 H5           7.7760     2.6110     0.1500 hc         1 81Y       0.046700
     33 H2           5.6150    -1.2640    -0.3810 ha         1 81Y       0.136000
     34 H1           4.1760    -3.2010    -0.6460 ha         1 81Y       0.138000
     35 H            1.3610    -3.9230    -0.4660 hn         1 81Y       0.325700
     36 H3           2.2480     1.2850     0.4120 ha         1 81Y       0.154000
     37 H13         -2.1080    -1.1880    -0.6810 ha         1 81Y       0.150000
     38 H12         -1.4020     2.6840     2.1690 h4         1 81Y       0.015100
     39 H11          0.4950     1.1560     1.7840 ha         1 81Y       0.147000
     40 H20         -4.3460    -0.5000    -2.0380 h1         1 81Y       0.055700
     41 H21         -4.0730    -1.6370    -0.7140 h1         1 81Y       0.055700
     42 H18         -6.3680    -1.7860    -1.6520 h1         1 81Y       0.052450
     43 H19         -6.2980    -1.4910     0.0930 h1         1 81Y       0.052450
     44 H17         -7.2520     1.9210    -0.3330 h1         1 81Y       0.052450
     45 H16         -6.8180     0.6990     0.8730 h1         1 81Y       0.052450
     46 H15         -4.9350     2.1980     0.5920 h1         1 81Y       0.055700
     47 H14         -4.9730     2.0320    -1.1620 h1         1 81Y       0.055700
@<TRIPOS>BOND
     1     1     2 1   
     2     1    26 1   
     3     1    27 1   
     4     1    28 1   
     5     2     3 1   
     6     2     4 1   
     7     2    29 1   
     8     3    30 1   
     9     3    31 1   
    10     3    32 1   
    11     4     5 1   
    12     5     6 ar  
    13     5    11 ar  
    14     6     7 ar  
    15     6    33 1   
    16     7     8 ar  
    17     7    34 1   
    18     8     9 1   
    19     8    12 ar  
    20     9    10 1   
    21     9    35 1   
    22    10    13 2   
    23    11    12 ar  
    24    11    36 1   
    25    12    13 1   
    26    13    14 1   
    27    14    15 ar  
    28    14    19 ar  
    29    15    16 ar  
    30    15    37 1   
    31    16    17 ar  
    32    16    20 1   
    33    17    18 ar  
    34    18    19 ar  
    35    18    38 1   
    36    19    39 1   
    37    20    21 1   
    38    20    25 1   
    39    21    22 1   
    40    21    40 1   
    41    21    41 1   
    42    22    23 1   
    43    22    42 1   
    44    22    43 1   
    45    23    24 1   
    46    24    25 1   
    47    24    44 1   
    48    24    45 1   
    49    25    46 1   
    50    25    47 1   
@<TRIPOS>SUBSTRUCTURE
     1 81Y         1 TEMP              0 ****  ****    0 ROOT
