@<TRIPOS>MOLECULE
820
   56    57     1     0     0
SMALL
abcg2


@<TRIPOS>ATOM
      1 C1          19.4300    -2.4510    34.6130 c          1 820       0.718000
      2 C10         17.8730     3.4100    35.4290 ca         1 820      -0.207000
      3 C11         18.5460     2.2910    34.9480 ca         1 820      -0.071000
      4 C12         14.3100     2.1030    35.5550 c3         1 820       0.162300
      5 C13         13.0800     3.1770    37.4010 c          1 820       0.615700
      6 C14         13.0270     3.3410    38.8900 ca         1 820      -0.112600
      7 C15         11.8020     3.6060    39.4910 ca         1 820      -0.082500
      8 C16         11.7190     3.8120    40.8590 ca         1 820      -0.073500
      9 C17         12.8720     3.7810    41.6340 ca         1 820      -0.189300
     10 C18         14.1030     3.5320    41.0380 ca         1 820      -0.073500
     11 C19         14.1780     3.3100    39.6730 ca         1 820      -0.082500
     12 C2          18.8690    -1.1610    35.2500 c3         1 820      -0.188700
     13 C20         12.8230     3.9970    43.1160 c3         1 820       0.355300
     14 C21         16.3980     5.6150    36.4080 c3         1 820       0.166600
     15 C22         15.3410     6.5990    36.8590 c3         1 820      -0.073400
     16 C23         14.3470     6.9690    35.7660 c3         1 820      -0.087100
     17 C3          19.8250    -0.6280    36.3170 c3         1 820      -0.049400
     18 C4          20.1080    -1.6220    37.4380 c3         1 820      -0.077100
     19 C5          18.6030    -0.1100    34.1580 c3         1 820      -0.020100
     20 C6          17.8810     1.1090    34.6580 ca         1 820      -0.076300
     21 C7          16.5020     1.0820    34.8750 ca         1 820      -0.066000
     22 C8          15.7990     2.1790    35.3460 ca         1 820      -0.166300
     23 C9          16.4980     3.3640    35.6230 ca         1 820       0.131100
     24 F30         13.7210     4.9070    43.5140 f          1 820      -0.115667
     25 F31         13.1020     2.8700    43.7870 f          1 820      -0.115667
     26 F32         11.6270     4.4170    43.5370 f          1 820      -0.115667
     27 N27         13.9590     2.2710    36.9510 ns         1 820      -0.483900
     28 O25         18.8000    -3.5100    34.8120 o          1 820      -0.732500
     29 O26         20.4800    -2.3240    33.9490 o          1 820      -0.732500
     30 O28         12.3490     3.8420    36.6800 o          1 820      -0.609100
     31 O33         15.7580     4.3990    36.0630 os         1 820      -0.353100
     32 H1          18.4390     4.3090    35.6360 ha         1 820       0.105000
     33 H2          19.6170     2.3550    34.7970 ha         1 820       0.115000
     34 H3          13.7920     2.8730    34.9840 h1         1 820       0.061200
     35 H4          13.9440     1.1400    35.1930 h1         1 820       0.061200
     36 H5          10.9020     3.6460    38.8930 ha         1 820       0.135500
     37 H6          10.7510     4.0020    41.3030 ha         1 820       0.128500
     38 H7          15.0130     3.5170    41.6240 ha         1 820       0.128500
     39 H8          15.1480     3.1400    39.2250 ha         1 820       0.135500
     40 H9          17.9140    -1.3990    35.7330 hc         1 820       0.030700
     41 H10         16.9420     6.0190    35.5460 h1         1 820       0.028200
     42 H11         17.1280     5.4420    37.2080 h1         1 820       0.028200
     43 H12         15.8660     7.4950    37.2010 hc         1 820       0.042700
     44 H13         14.8180     6.2000    37.7320 hc         1 820       0.042700
     45 H14         13.6630     7.7440    36.1110 hc         1 820       0.037700
     46 H15         14.8620     7.3500    34.8830 hc         1 820       0.037700
     47 H16         13.7460     6.1140    35.4600 hc         1 820       0.037700
     48 H17         20.7650    -0.3350    35.8410 hc         1 820       0.016200
     49 H18         19.4120     0.2850    36.7550 hc         1 820       0.016200
     50 H19         20.7360    -1.1740    38.2090 hc         1 820       0.022033
     51 H20         19.1840    -1.9520    37.9170 hc         1 820       0.022033
     52 H21         20.6260    -2.5110    37.0750 hc         1 820       0.022033
     53 H22         18.0090    -0.5700    33.3620 hc         1 820       0.053200
     54 H23         19.5530     0.1830    33.7070 hc         1 820       0.053200
     55 H24         15.9520     0.1710    34.6600 ha         1 820       0.121000
     56 H25         14.4600     1.7000    37.6140 hn         1 820       0.318500
@<TRIPOS>BOND
     1     1    12 1   
     2     1    28 1   
     3     1    29 1   
     4     2     3 ar  
     5     2    23 ar  
     6     2    32 1   
     7     3    20 ar  
     8     3    33 1   
     9     4    22 1   
    10     4    27 1   
    11     4    34 1   
    12     4    35 1   
    13     5     6 1   
    14     5    27 1   
    15     5    30 2   
    16     6     7 ar  
    17     6    11 ar  
    18     7     8 ar  
    19     7    36 1   
    20     8     9 ar  
    21     8    37 1   
    22     9    10 ar  
    23     9    13 1   
    24    10    11 ar  
    25    10    38 1   
    26    11    39 1   
    27    12    17 1   
    28    12    19 1   
    29    12    40 1   
    30    13    24 1   
    31    13    25 1   
    32    13    26 1   
    33    14    15 1   
    34    14    31 1   
    35    14    41 1   
    36    14    42 1   
    37    15    16 1   
    38    15    43 1   
    39    15    44 1   
    40    16    45 1   
    41    16    46 1   
    42    16    47 1   
    43    17    18 1   
    44    17    48 1   
    45    17    49 1   
    46    18    50 1   
    47    18    51 1   
    48    18    52 1   
    49    19    20 1   
    50    19    53 1   
    51    19    54 1   
    52    20    21 ar  
    53    21    22 ar  
    54    21    55 1   
    55    22    23 ar  
    56    23    31 1   
    57    27    56 1   
@<TRIPOS>SUBSTRUCTURE
     1 820         1 TEMP              0 ****  ****    0 ROOT
