@<TRIPOS>MOLECULE
820
   56    57     1     0     0
SMALL
No Charge or Current Charge


@<TRIPOS>ATOM
      1 C1          18.9920    -2.4910    35.1700 c          1 820       0.718000
      2 C10         18.0730     3.6330    34.9110 ca         1 820      -0.207000
      3 C11         18.6340     2.3780    34.6230 ca         1 820      -0.071000
      4 C12         14.4120     2.6720    35.5760 c3         1 820       0.162300
      5 C13         12.9770     2.7180    37.6320 c          1 820       0.615700
      6 C14         12.9680     2.7720    39.1490 ca         1 820      -0.112600
      7 C15         11.7330     2.8000    39.8360 ca         1 820      -0.082500
      8 C16         11.6870     2.8500    41.2390 ca         1 820      -0.073500
      9 C17         12.8760     2.8800    41.9960 ca         1 820      -0.189300
     10 C18         14.1110     2.8430    41.3170 ca         1 820      -0.073500
     11 C19         14.1600     2.7920    39.9130 ca         1 820      -0.082500
     12 C2          18.5520    -1.0670    35.5880 c3         1 820      -0.188700
     13 C20         12.8270     2.9240    43.5280 c3         1 820       0.355300
     14 C21         16.8510     6.1920    35.5270 c3         1 820       0.166600
     15 C22         15.8800     7.3280    35.9110 c3         1 820      -0.073400
     16 C23         14.7320     7.5410    34.9010 c3         1 820      -0.087100
     17 C3          19.4720    -0.4700    36.6920 c3         1 820      -0.049400
     18 C4          19.5460    -1.3220    37.9750 c3         1 820      -0.077100
     19 C5          18.4460    -0.1460    34.3420 c3         1 820      -0.020100
     20 C6          17.8360     1.2200    34.6450 ca         1 820      -0.076300
     21 C7          16.4670     1.3310    34.9520 ca         1 820      -0.066000
     22 C8          15.8940     2.5860    35.2400 ca         1 820      -0.166300
     23 C9          16.7000     3.7430    35.2230 ca         1 820       0.131100
     24 F30         13.8900     3.5730    44.0580 f          1 820      -0.115667
     25 F31         12.8220     1.6790    44.0550 f          1 820      -0.115667
     26 F32         11.7230     3.5540    43.9910 f          1 820      -0.115667
     27 N27         14.2080     2.6950    37.0200 ns         1 820      -0.483900
     28 O25         18.2100    -3.4120    35.3550 o          1 820      -0.732500
     29 O26         20.0910    -2.6390    34.6540 o          1 820      -0.732500
     30 O28         11.9450     2.6970    36.9720 o          1 820      -0.609100
     31 O33         16.1140     4.9570    35.5230 os         1 820      -0.353100
     32 H1          18.7190     4.5050    34.8910 ha         1 820       0.105000
     33 H2          19.6940     2.3050    34.3900 ha         1 820       0.115000
     34 H3          13.9760     3.5790    35.1370 h1         1 820       0.061200
     35 H4          13.8810     1.8080    35.1550 h1         1 820       0.061200
     36 H5          10.7980     2.7800    39.2800 ha         1 820       0.135500
     37 H6          10.7180     2.8630    41.7340 ha         1 820       0.128500
     38 H7          15.0450     2.8510    41.8770 ha         1 820       0.128500
     39 H8          15.1370     2.7680    39.4380 ha         1 820       0.135500
     40 H9          17.5450    -1.1500    36.0180 hc         1 820       0.030700
     41 H10         17.2800     6.3940    34.5370 h1         1 820       0.028200
     42 H11         17.6660     6.1510    36.2610 h1         1 820       0.028200
     43 H12         16.4520     8.2600    35.9980 hc         1 820       0.042700
     44 H13         15.4590     7.1240    36.9040 hc         1 820       0.042700
     45 H14         14.1020     8.3830    35.2120 hc         1 820       0.037700
     46 H15         15.1300     7.7600    33.9030 hc         1 820       0.037700
     47 H16         14.0980     6.6490    34.8340 hc         1 820       0.037700
     48 H17         20.4850    -0.3360    36.2930 hc         1 820       0.016200
     49 H18         19.1090     0.5270    36.9680 hc         1 820       0.016200
     50 H19         20.1680    -0.8220    38.7270 hc         1 820       0.022033
     51 H20         18.5470    -1.4690    38.4010 hc         1 820       0.022033
     52 H21         19.9860    -2.3060    37.7720 hc         1 820       0.022033
     53 H22         17.8350    -0.6510    33.5830 hc         1 820       0.053200
     54 H23         19.4410    -0.0280    33.8940 hc         1 820       0.053200
     55 H24         15.8470     0.4370    34.9700 ha         1 820       0.121000
     56 H25         15.0250     2.7270    37.6130 hn         1 820       0.318500
@<TRIPOS>BOND
     1     1    12 1   
     2     1    28 1   
     3     1    29 1   
     4     2     3 ar  
     5     2    23 ar  
     6     2    32 1   
     7     3    20 ar  
     8     3    33 1   
     9     4    22 1   
    10     4    27 1   
    11     4    34 1   
    12     4    35 1   
    13     5     6 1   
    14     5    27 1   
    15     5    30 2   
    16     6     7 ar  
    17     6    11 ar  
    18     7     8 ar  
    19     7    36 1   
    20     8     9 ar  
    21     8    37 1   
    22     9    10 ar  
    23     9    13 1   
    24    10    11 ar  
    25    10    38 1   
    26    11    39 1   
    27    12    17 1   
    28    12    19 1   
    29    12    40 1   
    30    13    24 1   
    31    13    25 1   
    32    13    26 1   
    33    14    15 1   
    34    14    31 1   
    35    14    41 1   
    36    14    42 1   
    37    15    16 1   
    38    15    43 1   
    39    15    44 1   
    40    16    45 1   
    41    16    46 1   
    42    16    47 1   
    43    17    18 1   
    44    17    48 1   
    45    17    49 1   
    46    18    50 1   
    47    18    51 1   
    48    18    52 1   
    49    19    20 1   
    50    19    53 1   
    51    19    54 1   
    52    20    21 ar  
    53    21    22 ar  
    54    21    55 1   
    55    22    23 ar  
    56    23    31 1   
    57    27    56 1   
@<TRIPOS>SUBSTRUCTURE
     1 820         1 TEMP              0 ****  ****    0 ROOT
