@<TRIPOS>MOLECULE
821
   74    77     1     0     0
SMALL
No Charge or Current Charge


@<TRIPOS>ATOM
      1 C1           1.3650    -1.1920    -2.8910 ce         1 821      -0.051200
      2 C2           1.4800    -0.8860    -1.5620 cf         1 821      -0.107600
      3 N3           0.3230    -0.3310    -0.8650 ns         1 821      -0.440100
      4 C4          -0.1520    -0.6200     0.4020 c          1 821       0.593100
      5 C5          -1.4450     0.0960     0.7660 c3         1 821      -0.183100
      6 O9           0.3990    -1.3890     1.1720 o          1 821      -0.582100
      7 C10          2.8220    -1.1030    -0.8750 c          1 821       0.623300
      8 O11          3.7800    -1.6120    -1.4410 o          1 821      -0.593100
      9 N12          2.9270    -0.6460     0.4130 ns         1 821      -0.503900
     10 C14          4.1370    -0.6680     1.2610 c3         1 821       0.037700
     11 C15          5.2290     0.3390     0.8020 c3         1 821      -0.086400
     12 C16          4.7530     1.7800     0.4950 c3         1 821      -0.075400
     13 C19          4.1500     2.5400     1.6960 c3         1 821      -0.094400
     14 C22          2.9030     1.8600     2.2860 c3         1 821       0.109000
     15 C25          3.7350    -0.4930     2.7550 c          1 821       0.558000
     16 N26          3.2240     0.7500     3.2110 n          1 821      -0.407800
     17 O29          3.8710    -1.4330     3.5300 o          1 821      -0.552000
     18 C30          2.7300     0.8930     4.6010 c3         1 821       0.139300
     19 C31          1.2200     0.7050     4.6960 ca         1 821      -0.108300
     20 C34          0.3650     1.8180     4.7950 ca         1 821      -0.102500
     21 C35         -1.0280     1.6420     4.8410 ca         1 821      -0.100500
     22 C36         -1.6080     0.3490     4.7900 cp         1 821      -0.043000
     23 C37         -0.7310    -0.7600     4.6950 ca         1 821      -0.100500
     24 C38          0.6620    -0.5850     4.6490 ca         1 821      -0.102500
     25 C43         -3.0950     0.1630     4.8270 cp         1 821      -0.027000
     26 C44         -3.7210    -0.8860     4.1050 ca         1 821      -0.100000
     27 C45         -5.1160    -1.0590     4.1360 ca         1 821      -0.112000
     28 C46         -5.9160    -0.1880     4.8920 ca         1 821      -0.112000
     29 C47         -5.3190     0.8570     5.6160 ca         1 821      -0.112000
     30 C48         -3.9250     1.0300     5.5830 ca         1 821      -0.100000
     31 C56          0.1720    -1.0660    -3.7780 ca         1 821      -0.140800
     32 C57         -1.1010    -1.4810    -3.3540 ca         1 821      -0.068000
     33 C58         -2.2030    -1.3590    -4.2100 ca         1 821      -0.155000
     34 C59         -2.0650    -0.8320    -5.5110 ca         1 821       0.060700
     35 C60         -0.7770    -0.4220    -5.9530 ca         1 821      -0.177600
     36 C61          0.3260    -0.5500    -5.0770 ca         1 821      -0.033000
     37 C65         -3.3220    -0.7360    -6.3800 c3         1 821      -0.208100
     38 C66         -3.8950     0.6840    -6.2960 c          1 821       0.724000
     39 O69         -4.6520     0.9430    -5.3730 o          1 821      -0.710500
     40 O70         -3.4690     1.5200    -7.0780 o          1 821      -0.710500
     41 C71         -0.5390     0.1530    -7.3330 c          1 821       0.637500
     42 O72          0.5640     0.5360    -7.7180 o          1 821      -0.569100
     43 H1           2.2500    -1.5590    -3.4140 ha         1 821       0.200000
     44 H3          -0.3280     0.1740    -1.4570 hn         1 821       0.324500
     45 H51         -2.2070    -0.1390     0.0150 hc         1 821       0.059700
     46 H52         -1.7880    -0.1440     1.7780 hc         1 821       0.059700
     47 H53         -1.3070     1.1740     0.6310 hc         1 821       0.059700
     48 H12          2.0510    -0.3620     0.8360 hn         1 821       0.313500
     49 H14          4.5710    -1.6750     1.1960 h1         1 821       0.111700
     50 H151         5.6980    -0.0570    -0.1070 hc         1 821       0.054200
     51 H152         6.0240     0.3730     1.5580 hc         1 821       0.054200
     52 H161         4.0220     1.7580    -0.3220 hc         1 821       0.041200
     53 H162         5.6090     2.3540     0.1200 hc         1 821       0.041200
     54 H191         3.8680     3.5440     1.3570 hc         1 821       0.046700
     55 H192         4.9060     2.6730     2.4800 hc         1 821       0.046700
     56 H221         2.2290     1.5230     1.4900 h1         1 821       0.044700
     57 H222         2.3510     2.6260     2.8470 h1         1 821       0.044700
     58 H301         3.2300     0.1740     5.2620 h1         1 821       0.065200
     59 H302         3.0000     1.8920     4.9690 h1         1 821       0.065200
     60 H34          0.7780     2.8250     4.8250 ha         1 821       0.124500
     61 H35         -1.6650     2.5210     4.8980 ha         1 821       0.119500
     62 H37         -1.1320    -1.7700     4.6650 ha         1 821       0.119500
     63 H38          1.3080    -1.4560     4.5670 ha         1 821       0.124500
     64 H44         -3.1230    -1.5650     3.5030 ha         1 821       0.113500
     65 H45         -5.5750    -1.8680     3.5720 ha         1 821       0.110500
     66 H46         -6.9950    -0.3220     4.9170 ha         1 821       0.109000
     67 H47         -5.9370     1.5310     6.2050 ha         1 821       0.110500
     68 H48         -3.4830     1.8370     6.1620 ha         1 821       0.113500
     69 H57         -1.2390    -1.9130    -2.3650 ha         1 821       0.093000
     70 H58         -3.1790    -1.6830    -3.8570 ha         1 821       0.109000
     71 H61          1.3170    -0.2390    -5.4020 ha         1 821       0.120000
     72 H651        -3.0500    -0.9880    -7.4100 hc         1 821       0.041700
     73 H652        -4.0530    -1.4450    -5.9730 hc         1 821       0.041700
     74 H71         -1.4080     0.2180    -8.0190 h4         1 821       0.004200
@<TRIPOS>BOND
     1     1     2 2   
     2     1    31 1   
     3     1    43 1   
     4     2     3 1   
     5     2     7 1   
     6     3     4 1   
     7     3    44 1   
     8     4     5 1   
     9     4     6 2   
    10     5    45 1   
    11     5    46 1   
    12     5    47 1   
    13     7     8 2   
    14     7     9 1   
    15     9    10 1   
    16     9    48 1   
    17    10    11 1   
    18    10    15 1   
    19    10    49 1   
    20    11    12 1   
    21    11    50 1   
    22    11    51 1   
    23    12    13 1   
    24    12    52 1   
    25    12    53 1   
    26    13    14 1   
    27    13    54 1   
    28    13    55 1   
    29    14    16 1   
    30    14    56 1   
    31    14    57 1   
    32    15    16 1   
    33    15    17 2   
    34    16    18 1   
    35    18    19 1   
    36    18    58 1   
    37    18    59 1   
    38    19    20 ar  
    39    19    24 ar  
    40    20    21 ar  
    41    20    60 1   
    42    21    22 ar  
    43    21    61 1   
    44    22    23 ar  
    45    22    25 1   
    46    23    24 ar  
    47    23    62 1   
    48    24    63 1   
    49    25    26 ar  
    50    25    30 ar  
    51    26    27 ar  
    52    26    64 1   
    53    27    28 ar  
    54    27    65 1   
    55    28    29 ar  
    56    28    66 1   
    57    29    30 ar  
    58    29    67 1   
    59    30    68 1   
    60    31    32 ar  
    61    31    36 ar  
    62    32    33 ar  
    63    32    69 1   
    64    33    34 ar  
    65    33    70 1   
    66    34    35 ar  
    67    34    37 1   
    68    35    36 ar  
    69    35    41 1   
    70    36    71 1   
    71    37    38 1   
    72    37    72 1   
    73    37    73 1   
    74    38    39 1   
    75    38    40 1   
    76    41    42 2   
    77    41    74 1   
@<TRIPOS>SUBSTRUCTURE
     1 821         1 TEMP              0 ****  ****    0 ROOT
