@<TRIPOS>MOLECULE
821
   74    77     1     0     0
SMALL
abcg2


@<TRIPOS>ATOM
      1 C1           1.0280    -1.2160    -2.8050 ce         1 821      -0.051200
      2 C2           1.1560    -0.6570    -1.5950 cf         1 821      -0.107600
      3 N3           0.2500     0.2750    -1.0540 ns         1 821      -0.440100
      4 C4          -0.4790    -0.0210     0.0570 c          1 821       0.593100
      5 C5          -1.4200     1.0530     0.5230 c3         1 821      -0.183100
      6 O9          -0.3510    -1.0890     0.6280 o          1 821      -0.582100
      7 C10          2.3820    -0.9680    -0.7910 c          1 821       0.623300
      8 O11          3.0180    -1.9960    -0.9630 o          1 821      -0.593100
      9 N12          2.7390    -0.0050     0.0860 ns         1 821      -0.503900
     10 C14          3.9450    -0.0620     0.8820 c3         1 821       0.037700
     11 C15          4.8980     1.1030     0.6070 c3         1 821      -0.086400
     12 C16          4.3110     2.5030     0.7030 c3         1 821      -0.075400
     13 C19          3.7650     2.8680     2.0750 c3         1 821      -0.094400
     14 C22          2.6360     1.9720     2.5620 c3         1 821       0.109000
     15 C25          3.6390    -0.3010     2.3680 c          1 821       0.558000
     16 N26          3.0610     0.6810     3.0910 n          1 821      -0.407800
     17 O29          3.9430    -1.3810     2.8560 o          1 821      -0.552000
     18 C30          2.7480     0.4510     4.4910 c3         1 821       0.139300
     19 C31          1.2670     0.3030     4.7360 ca         1 821      -0.108300
     20 C34          0.6980     0.7590     5.9210 ca         1 821      -0.102500
     21 C35         -0.6610     0.6190     6.1580 ca         1 821      -0.100500
     22 C36         -1.4980     0.0270     5.2110 cp         1 821      -0.043000
     23 C37         -0.9220    -0.4280     4.0250 ca         1 821      -0.100500
     24 C38          0.4380    -0.2960     3.7950 ca         1 821      -0.102500
     25 C43         -2.9500    -0.0980     5.4470 cp         1 821      -0.027000
     26 C44         -3.8600     0.0740     4.4020 ca         1 821      -0.100000
     27 C45         -5.2240    -0.0400     4.6210 ca         1 821      -0.112000
     28 C46         -5.7070    -0.3260     5.8910 ca         1 821      -0.112000
     29 C47         -4.8120    -0.4990     6.9400 ca         1 821      -0.112000
     30 C48         -3.4470    -0.3870     6.7190 ca         1 821      -0.100000
     31 C56         -0.0300    -1.0830    -3.8010 ca         1 821      -0.140800
     32 C57         -1.3160    -0.5830    -3.5600 ca         1 821      -0.068000
     33 C58         -2.2520    -0.5220    -4.5770 ca         1 821      -0.155000
     34 C59         -1.9670    -0.9580    -5.8700 ca         1 821       0.060700
     35 C60         -0.6880    -1.4760    -6.1120 ca         1 821      -0.177600
     36 C61          0.2540    -1.5280    -5.0920 ca         1 821      -0.033000
     37 C65         -2.9880    -0.8110    -6.9490 c3         1 821      -0.208100
     38 C66         -2.5740     0.1810    -8.0720 c          1 821       0.724000
     39 O69         -3.5030     0.7850    -8.6330 o          1 821      -0.710500
     40 O70         -1.3580     0.2580    -8.3330 o          1 821      -0.710500
     41 C71         -0.3190    -1.9980    -7.4450 c          1 821       0.637500
     42 O72          0.8260    -2.1830    -7.7960 o          1 821      -0.569100
     43 H1           1.8550    -1.8450    -3.1150 ha         1 821       0.200000
     44 H3           0.0480     1.1190    -1.5700 hn         1 821       0.324500
     45 H51         -2.4170     0.6320     0.6430 hc         1 821       0.059700
     46 H52         -1.1010     1.4110     1.5040 hc         1 821       0.059700
     47 H53         -1.4770     1.9040    -0.1530 hc         1 821       0.059700
     48 H12          2.2030     0.8480     0.0690 hn         1 821       0.313500
     49 H14          4.4600    -0.9710     0.5800 h1         1 821       0.111700
     50 H151         5.2990     0.9570    -0.3990 hc         1 821       0.054200
     51 H152         5.7460     1.0110     1.2920 hc         1 821       0.054200
     52 H161         3.5250     2.6360    -0.0480 hc         1 821       0.041200
     53 H162         5.0920     3.2160     0.4290 hc         1 821       0.041200
     54 H191         3.3820     3.8900     2.0400 hc         1 821       0.046700
     55 H192         4.5670     2.8620     2.8180 hc         1 821       0.046700
     56 H221         1.8710     1.8470     1.7890 h1         1 821       0.044700
     57 H222         2.1200     2.4780     3.3770 h1         1 821       0.044700
     58 H301         3.2760    -0.4400     4.8270 h1         1 821       0.065200
     59 H302         3.1360     1.2860     5.0800 h1         1 821       0.065200
     60 H34          1.3180     1.2480     6.6640 ha         1 821       0.124500
     61 H35         -1.0770     1.0090     7.0790 ha         1 821       0.119500
     62 H37         -1.5330    -0.9050     3.2680 ha         1 821       0.119500
     63 H38          0.8440    -0.6590     2.8600 ha         1 821       0.124500
     64 H44         -3.5010     0.3210     3.4100 ha         1 821       0.113500
     65 H45         -5.9130     0.1040     3.7990 ha         1 821       0.110500
     66 H46         -6.7720    -0.4130     6.0640 ha         1 821       0.109000
     67 H47         -5.1770    -0.7310     7.9320 ha         1 821       0.110500
     68 H48         -2.7620    -0.5440     7.5430 ha         1 821       0.113500
     69 H57         -1.6100    -0.2530    -2.5760 ha         1 821       0.093000
     70 H58         -3.2350    -0.1250    -4.3580 ha         1 821       0.109000
     71 H61          1.2340    -1.9380    -5.3050 ha         1 821       0.120000
     72 H651        -3.1770    -1.7750    -7.4360 hc         1 821       0.041700
     73 H652        -3.9410    -0.5040    -6.5180 hc         1 821       0.041700
     74 H71         -1.1550    -2.3050    -8.0880 h4         1 821       0.004200
@<TRIPOS>BOND
     1     1     2 2   
     2     1    31 1   
     3     1    43 1   
     4     2     3 1   
     5     2     7 1   
     6     3     4 1   
     7     3    44 1   
     8     4     5 1   
     9     4     6 2   
    10     5    45 1   
    11     5    46 1   
    12     5    47 1   
    13     7     8 2   
    14     7     9 1   
    15     9    10 1   
    16     9    48 1   
    17    10    11 1   
    18    10    15 1   
    19    10    49 1   
    20    11    12 1   
    21    11    50 1   
    22    11    51 1   
    23    12    13 1   
    24    12    52 1   
    25    12    53 1   
    26    13    14 1   
    27    13    54 1   
    28    13    55 1   
    29    14    16 1   
    30    14    56 1   
    31    14    57 1   
    32    15    16 1   
    33    15    17 2   
    34    16    18 1   
    35    18    19 1   
    36    18    58 1   
    37    18    59 1   
    38    19    20 ar  
    39    19    24 ar  
    40    20    21 ar  
    41    20    60 1   
    42    21    22 ar  
    43    21    61 1   
    44    22    23 ar  
    45    22    25 1   
    46    23    24 ar  
    47    23    62 1   
    48    24    63 1   
    49    25    26 ar  
    50    25    30 ar  
    51    26    27 ar  
    52    26    64 1   
    53    27    28 ar  
    54    27    65 1   
    55    28    29 ar  
    56    28    66 1   
    57    29    30 ar  
    58    29    67 1   
    59    30    68 1   
    60    31    32 ar  
    61    31    36 ar  
    62    32    33 ar  
    63    32    69 1   
    64    33    34 ar  
    65    33    70 1   
    66    34    35 ar  
    67    34    37 1   
    68    35    36 ar  
    69    35    41 1   
    70    36    71 1   
    71    37    38 1   
    72    37    72 1   
    73    37    73 1   
    74    38    39 1   
    75    38    40 1   
    76    41    42 2   
    77    41    74 1   
@<TRIPOS>SUBSTRUCTURE
     1 821         1 TEMP              0 ****  ****    0 ROOT
