@<TRIPOS>MOLECULE
822
   75    78     1     0     0
SMALL
No Charge or Current Charge


@<TRIPOS>ATOM
      1 C1          19.7860    26.2160    20.1510 ca         1 822      -0.150300
      2 C2          19.9420    27.6130    20.0900 ca         1 822      -0.121500
      3 C3          19.3350    28.3530    19.0600 ca         1 822      -0.080000
      4 C4          18.5630    27.7090    18.0690 ca         1 822      -0.033300
      5 C5          18.3990    26.3090    18.1440 ca         1 822      -0.080000
      6 C6          19.0070    25.5700    19.1740 ca         1 822      -0.121500
      7 C11         17.9190    28.5160    16.9310 c3         1 822      -0.045700
      8 F12         17.8410    27.7730    15.7950 f          1 822      -0.164500
      9 F13         18.6900    29.5870    16.6030 f          1 822      -0.164500
     10 P14         16.1770    29.1420    17.3550 p5         1 822       1.262500
     11 O15         15.6350    29.9350    16.2080 o          1 822      -0.897500
     12 O16         16.2330    30.0140    18.5680 o          1 822      -0.897500
     13 O17         15.2710    27.9820    17.6160 o          1 822      -0.897500
     14 C18         20.4530    25.4100    21.2610 c3         1 822      -0.017100
     15 C19         19.4930    25.0310    22.4200 c3         1 822       0.038700
     16 C22         20.2370    24.2270    23.5260 c          1 822       0.595100
     17 N23         20.6470    22.9630    23.1530 ns         1 822      -0.493900
     18 O24         20.4530    24.6670    24.6500 o          1 822      -0.631100
     19 N25         18.8450    26.2370    22.9910 ns         1 822      -0.508900
     20 C26         17.5810    26.6820    22.6740 c          1 822       0.597100
     21 O27         16.8260    26.0630    21.9400 o          1 822      -0.555100
     22 C28         17.1900    27.9990    23.3290 c3         1 822      -0.175100
     23 C32         21.3740    22.0100    24.0220 c3         1 822       0.046700
     24 C33         22.1380    20.9660    23.1440 c          1 822       0.550000
     25 N34         22.8810    19.9570    23.7960 n          1 822      -0.411800
     26 O37         22.0360    20.9770    21.9220 o          1 822      -0.552000
     27 C38         23.2730    20.0890    25.2130 c3         1 822       0.109000
     28 C39         22.1280    19.7200    26.1720 c3         1 822      -0.101400
     29 C42         23.4470    18.8110    23.0440 c3         1 822       0.138300
     30 C43         22.6910    17.5180    23.3180 ca         1 822      -0.099300
     31 C46         21.0870    20.8480    26.3470 c3         1 822      -0.071400
     32 C49         20.4120    21.3380    25.0430 c3         1 822      -0.085400
     33 C58         21.4330    17.2990    22.7300 ca         1 822      -0.099500
     34 C59         20.7220    16.1170    22.9960 ca         1 822      -0.104500
     35 C60         21.2470    15.1220    23.8570 cp         1 822      -0.042000
     36 C61         22.5160    15.3610    24.4430 ca         1 822      -0.104500
     37 C62         23.2280    16.5440    24.1790 ca         1 822      -0.099500
     38 C67         20.4870    13.8620    24.1420 cp         1 822      -0.025000
     39 C68         21.1590    12.6290    24.3390 ca         1 822      -0.101000
     40 C69         20.4470    11.4470    24.6060 ca         1 822      -0.113000
     41 C70         19.0450    11.4730    24.6840 ca         1 822      -0.114000
     42 C71         18.3580    12.6820    24.4940 ca         1 822      -0.113000
     43 C72         19.0710    13.8630    24.2250 ca         1 822      -0.101000
     44 H2          20.5350    28.1300    20.8400 ha         1 822       0.071500
     45 H3          19.4670    29.4320    19.0340 ha         1 822       0.130500
     46 H5          17.8000    25.7880    17.4010 ha         1 822       0.130500
     47 H6          18.8720    24.4920    19.2110 ha         1 822       0.071500
     48 H181        20.8830    24.4950    20.8360 hc         1 822       0.035200
     49 H182        21.2990    25.9720    21.6750 hc         1 822       0.035200
     50 H19         18.7170    24.3640    22.0220 h1         1 822       0.098700
     51 H23         20.4590    22.6810    22.1970 hn         1 822       0.328500
     52 H25         19.3770    26.8010    23.6440 hn         1 822       0.309500
     53 H281        16.1720    28.3120    23.0700 hc         1 822       0.065033
     54 H282        17.3250    27.9140    24.4130 hc         1 822       0.065033
     55 H283        17.9290    28.7610    23.0600 hc         1 822       0.065033
     56 H32         22.1320    22.5820    24.5730 h1         1 822       0.079700
     57 H381        24.1140    19.4120    25.4110 h1         1 822       0.048200
     58 H382        23.6300    21.1080    25.4160 h1         1 822       0.048200
     59 H391        21.6350    18.8030    25.8260 hc         1 822       0.047200
     60 H392        22.5570    19.4930    27.1560 hc         1 822       0.047200
     61 H421        23.4340    19.0090    21.9650 h1         1 822       0.070200
     62 H422        24.5020    18.6860    23.3210 h1         1 822       0.070200
     63 H461        20.3070    20.4950    27.0330 hc         1 822       0.041700
     64 H462        21.5650    21.7020    26.8420 hc         1 822       0.041700
     65 H491        19.6390    22.0590    25.3340 hc         1 822       0.056700
     66 H492        19.8860    20.5050    24.5600 hc         1 822       0.056700
     67 H58         21.0050    18.0480    22.0660 ha         1 822       0.122500
     68 H59         19.7570    15.9680    22.5170 ha         1 822       0.111500
     69 H61         22.9470    14.6310    25.1220 ha         1 822       0.111500
     70 H62         24.1960    16.7040    24.6510 ha         1 822       0.122500
     71 H68         22.2430    12.5830    24.2700 ha         1 822       0.115000
     72 H69         20.9820    10.5100    24.7500 ha         1 822       0.109500
     73 H70         18.4940    10.5580    24.8910 ha         1 822       0.108000
     74 H71         17.2720    12.7050    24.5570 ha         1 822       0.109500
     75 H72         18.5200    14.7900    24.0950 ha         1 822       0.115000
@<TRIPOS>BOND
     1     1     2 ar  
     2     1     6 ar  
     3     1    14 1   
     4     2     3 ar  
     5     2    44 1   
     6     3     4 ar  
     7     3    45 1   
     8     4     5 ar  
     9     4     7 1   
    10     5     6 ar  
    11     5    46 1   
    12     6    47 1   
    13     7     8 1   
    14     7     9 1   
    15     7    10 1   
    16    10    11 1   
    17    10    12 1   
    18    10    13 1   
    19    14    15 1   
    20    14    48 1   
    21    14    49 1   
    22    15    16 1   
    23    15    19 1   
    24    15    50 1   
    25    16    17 1   
    26    16    18 2   
    27    17    23 1   
    28    17    51 1   
    29    19    20 1   
    30    19    52 1   
    31    20    21 2   
    32    20    22 1   
    33    22    53 1   
    34    22    54 1   
    35    22    55 1   
    36    23    24 1   
    37    23    32 1   
    38    23    56 1   
    39    24    25 1   
    40    24    26 2   
    41    25    27 1   
    42    25    29 1   
    43    27    28 1   
    44    27    57 1   
    45    27    58 1   
    46    28    31 1   
    47    28    59 1   
    48    28    60 1   
    49    29    30 1   
    50    29    61 1   
    51    29    62 1   
    52    30    33 ar  
    53    30    37 ar  
    54    31    32 1   
    55    31    63 1   
    56    31    64 1   
    57    32    65 1   
    58    32    66 1   
    59    33    34 ar  
    60    33    67 1   
    61    34    35 ar  
    62    34    68 1   
    63    35    36 ar  
    64    35    38 1   
    65    36    37 ar  
    66    36    69 1   
    67    37    70 1   
    68    38    39 ar  
    69    38    43 ar  
    70    39    40 ar  
    71    39    71 1   
    72    40    41 ar  
    73    40    72 1   
    74    41    42 ar  
    75    41    73 1   
    76    42    43 ar  
    77    42    74 1   
    78    43    75 1   
@<TRIPOS>SUBSTRUCTURE
     1 822         1 TEMP              0 ****  ****    0 ROOT
