@<TRIPOS>MOLECULE
822
   75    78     1     0     0
SMALL
abcg2


@<TRIPOS>ATOM
      1 C1          19.4530    25.4870    19.6740 ca         1 822      -0.150300
      2 C2          20.0470    26.6640    19.2190 ca         1 822      -0.121500
      3 C3          19.3240    27.5850    18.4730 ca         1 822      -0.080000
      4 C4          17.9870    27.3470    18.1590 ca         1 822      -0.033300
      5 C5          17.4030    26.1480    18.5690 ca         1 822      -0.080000
      6 C6          18.1300    25.2310    19.3140 ca         1 822      -0.121500
      7 C11         17.1670    28.4040    17.4830 c3         1 822      -0.045700
      8 F12         16.1740    27.7810    16.7170 f          1 822      -0.164500
      9 F13         17.9660    29.0530    16.5320 f          1 822      -0.164500
     10 P14         16.3550    29.6970    18.6300 p5         1 822       1.262500
     11 O15         15.5960    30.6030    17.6700 o          1 822      -0.897500
     12 O16         17.5360    30.3650    19.3250 o          1 822      -0.897500
     13 O17         15.4760    28.8450    19.5350 o          1 822      -0.897500
     14 C18         20.1630    24.5910    20.6480 c3         1 822      -0.017100
     15 C19         19.7910    24.9910    22.1000 c3         1 822       0.038700
     16 C22         20.4680    24.0520    23.0960 c          1 822       0.595100
     17 N23         19.7700    22.9430    23.3850 ns         1 822      -0.493900
     18 O24         21.5730    24.3020    23.5750 o          1 822      -0.631100
     19 N25         20.1630    26.3570    22.3840 ns         1 822      -0.508900
     20 C26         19.2780    27.3750    22.4510 c          1 822       0.597100
     21 O27         18.0590    27.2090    22.3990 o          1 822      -0.555100
     22 C28         19.8780    28.7550    22.5760 c3         1 822      -0.175100
     23 C32         20.2710    21.9090    24.2640 c3         1 822       0.046700
     24 C33         21.3770    21.0950    23.5690 c          1 822       0.550000
     25 N34         22.1400    20.3250    24.3730 n          1 822      -0.411800
     26 O37         21.5180    21.1420    22.3470 o          1 822      -0.552000
     27 C38         21.8990    20.1670    25.8140 c3         1 822       0.109000
     28 C39         20.5940    19.4440    26.1550 c3         1 822      -0.101400
     29 C42         23.1520    19.4410    23.7840 c3         1 822       0.138300
     30 C43         22.7160    17.9970    23.8020 ca         1 822      -0.099300
     31 C46         19.3550    20.3320    26.0690 c3         1 822      -0.071400
     32 C49         19.1180    20.9930    24.7130 c3         1 822      -0.085400
     33 C58         21.7170    17.5480    22.9370 ca         1 822      -0.099500
     34 C59         21.2580    16.2410    22.9990 ca         1 822      -0.104500
     35 C60         21.7800    15.3350    23.9320 cp         1 822      -0.042000
     36 C61         22.7880    15.7880    24.7880 ca         1 822      -0.104500
     37 C62         23.2480    17.0970    24.7210 ca         1 822      -0.099500
     38 C67         21.2760    13.9460    24.0140 cp         1 822      -0.025000
     39 C68         22.1270    12.8910    24.3690 ca         1 822      -0.101000
     40 C69         21.6520    11.5890    24.4560 ca         1 822      -0.113000
     41 C70         20.3150    11.3100    24.1880 ca         1 822      -0.114000
     42 C71         19.4580    12.3470    23.8320 ca         1 822      -0.113000
     43 C72         19.9340    13.6500    23.7470 ca         1 822      -0.101000
     44 H2          21.0770    26.8760    19.4770 ha         1 822       0.071500
     45 H3          19.7920    28.5070    18.1550 ha         1 822       0.130500
     46 H5          16.3690    25.9460    18.3250 ha         1 822       0.130500
     47 H6          17.6540    24.3170    19.6510 ha         1 822       0.071500
     48 H181        19.8800    23.5480    20.4970 hc         1 822       0.035200
     49 H182        21.2470    24.6670    20.5330 hc         1 822       0.035200
     50 H19         18.7100    24.9270    22.2120 h1         1 822       0.098700
     51 H23         18.8960    22.7820    22.9080 hn         1 822       0.328500
     52 H25         21.1480    26.5640    22.4320 hn         1 822       0.309500
     53 H281        19.3660    29.2970    23.3700 hc         1 822       0.065033
     54 H282        20.9490    28.7380    22.7730 hc         1 822       0.065033
     55 H283        19.6990    29.2860    21.6390 hc         1 822       0.065033
     56 H32         20.6970    22.4070    25.1360 h1         1 822       0.079700
     57 H381        22.7420    19.5980    26.2000 h1         1 822       0.048200
     58 H382        21.9330    21.1430    26.3030 h1         1 822       0.048200
     59 H391        20.4900    18.5780    25.4970 hc         1 822       0.047200
     60 H392        20.6790    19.0610    27.1750 hc         1 822       0.047200
     61 H421        23.3250    19.7800    22.7660 h1         1 822       0.070200
     62 H422        24.0760    19.5600    24.3520 h1         1 822       0.070200
     63 H461        18.4730    19.7410    26.3250 hc         1 822       0.041700
     64 H462        19.4330    21.1200    26.8260 hc         1 822       0.041700
     65 H491        18.2180    21.6080    24.7820 hc         1 822       0.056700
     66 H492        18.9330    20.2400    23.9410 hc         1 822       0.056700
     67 H58         21.2920    18.2310    22.2120 ha         1 822       0.122500
     68 H59         20.4940    15.9150    22.3040 ha         1 822       0.111500
     69 H61         23.2010    15.1200    25.5330 ha         1 822       0.111500
     70 H62         24.0200    17.4270    25.4070 ha         1 822       0.122500
     71 H68         23.1730    13.0890    24.5610 ha         1 822       0.115000
     72 H69         22.3290    10.7890    24.7270 ha         1 822       0.109500
     73 H70         19.9440    10.2950    24.2570 ha         1 822       0.108000
     74 H71         18.4140    12.1440    23.6290 ha         1 822       0.109500
     75 H72         19.2510    14.4490    23.4890 ha         1 822       0.115000
@<TRIPOS>BOND
     1     1     2 ar  
     2     1     6 ar  
     3     1    14 1   
     4     2     3 ar  
     5     2    44 1   
     6     3     4 ar  
     7     3    45 1   
     8     4     5 ar  
     9     4     7 1   
    10     5     6 ar  
    11     5    46 1   
    12     6    47 1   
    13     7     8 1   
    14     7     9 1   
    15     7    10 1   
    16    10    11 1   
    17    10    12 1   
    18    10    13 1   
    19    14    15 1   
    20    14    48 1   
    21    14    49 1   
    22    15    16 1   
    23    15    19 1   
    24    15    50 1   
    25    16    17 1   
    26    16    18 2   
    27    17    23 1   
    28    17    51 1   
    29    19    20 1   
    30    19    52 1   
    31    20    21 2   
    32    20    22 1   
    33    22    53 1   
    34    22    54 1   
    35    22    55 1   
    36    23    24 1   
    37    23    32 1   
    38    23    56 1   
    39    24    25 1   
    40    24    26 2   
    41    25    27 1   
    42    25    29 1   
    43    27    28 1   
    44    27    57 1   
    45    27    58 1   
    46    28    31 1   
    47    28    59 1   
    48    28    60 1   
    49    29    30 1   
    50    29    61 1   
    51    29    62 1   
    52    30    33 ar  
    53    30    37 ar  
    54    31    32 1   
    55    31    63 1   
    56    31    64 1   
    57    32    65 1   
    58    32    66 1   
    59    33    34 ar  
    60    33    67 1   
    61    34    35 ar  
    62    34    68 1   
    63    35    36 ar  
    64    35    38 1   
    65    36    37 ar  
    66    36    69 1   
    67    37    70 1   
    68    38    39 ar  
    69    38    43 ar  
    70    39    40 ar  
    71    39    71 1   
    72    40    41 ar  
    73    40    72 1   
    74    41    42 ar  
    75    41    73 1   
    76    42    43 ar  
    77    42    74 1   
    78    43    75 1   
@<TRIPOS>SUBSTRUCTURE
     1 822         1 TEMP              0 ****  ****    0 ROOT
