@<TRIPOS>MOLECULE
824
   37    41     1     0     0
SMALL
bcc


@<TRIPOS>ATOM
      1 O3           6.0730    -0.7220    -0.1040 oh         1 824      -0.519100
      2 C19          4.9550     0.0700    -0.0690 ca         1 824       0.066100
      3 C20          5.1020     1.4630    -0.1450 ca         1 824      -0.108000
      4 C18          4.0050     2.3020    -0.1630 ca         1 824      -0.152000
      5 C16          2.7450     1.7200    -0.1010 ca         1 824      -0.010200
      6 C15          2.5770     0.3230    -0.0240 cp         1 824      -0.075000
      7 C17          3.6990    -0.5070    -0.0070 ca         1 824      -0.077000
      8 C13          1.1550     0.0960     0.0120 cp         1 824      -0.031000
      9 C14          0.5400     1.3760    -0.0440 ca         1 824       0.012800
     10 N2           1.5120     2.3230    -0.1090 na         1 824      -0.177300
     11 C4           0.2950    -0.9860     0.0870 ca         1 824      -0.084600
     12 C5           0.5790    -2.4380     0.2040 c          1 824       0.733100
     13 O1           1.6450    -3.0020     0.2190 o          1 824      -0.571500
     14 C3          -1.0840    -0.8110     0.0890 ca         1 824      -0.177600
     15 C6          -1.7050    -2.1470     0.2590 c          1 824       0.734100
     16 O2          -2.8670    -2.4500     0.3650 o          1 824      -0.559500
     17 N1          -0.6510    -3.0450     0.3010 ns         1 824      -0.625500
     18 C2          -1.6820     0.4520     0.0100 cp         1 824       0.063000
     19 C1          -0.8400     1.5570    -0.0460 ca         1 824      -0.155000
     20 C7          -3.1450     0.6600    -0.0330 cp         1 824      -0.053000
     21 C8          -3.7560     1.5060     0.8900 ca         1 824      -0.099000
     22 C9          -5.1230     1.7440     0.8310 ca         1 824      -0.129500
     23 C10         -5.8900     1.1480    -0.1600 ca         1 824      -0.116000
     24 C11         -5.2850     0.3100    -1.0890 ca         1 824      -0.129500
     25 C12         -3.9230     0.0650    -1.0250 ca         1 824      -0.099000
     26 HO3          6.3580    -0.9250     0.7940 ho         1 824       0.419000
     27 H20          6.0990     1.8820    -0.1990 ha         1 824       0.143000
     28 H18          4.1270     3.3760    -0.2230 ha         1 824       0.139000
     29 H17          3.5950    -1.5820     0.0440 ha         1 824       0.172000
     30 HN2          1.3520     3.3160    -0.1620 hn         1 824       0.308700
     31 HN1         -0.7770    -4.0430     0.3980 hn         1 824       0.347500
     32 H1          -1.2560     2.5540    -0.1160 ha         1 824       0.146000
     33 H8          -3.1630     1.9700     1.6680 ha         1 824       0.133000
     34 H9          -5.5870     2.3960     1.5600 ha         1 824       0.133000
     35 H10         -6.9550     1.3370    -0.2100 ha         1 824       0.132000
     36 H11         -5.8760    -0.1510    -1.8700 ha         1 824       0.133000
     37 H12         -3.4570    -0.5770    -1.7620 ha         1 824       0.133000
@<TRIPOS>BOND
     1     1     2 1   
     2     1    26 1   
     3     2     3 ar  
     4     2     7 ar  
     5     3     4 ar  
     6     3    27 1   
     7     4     5 ar  
     8     4    28 1   
     9     5     6 ar  
    10     5    10 1   
    11     6     7 ar  
    12     6     8 1   
    13     7    29 1   
    14     8     9 ar  
    15     8    11 ar  
    16     9    10 1   
    17     9    19 ar  
    18    10    30 1   
    19    11    12 1   
    20    11    14 ar  
    21    12    13 2   
    22    12    17 1   
    23    14    15 1   
    24    14    18 ar  
    25    15    16 2   
    26    15    17 1   
    27    17    31 1   
    28    18    19 ar  
    29    18    20 1   
    30    19    32 1   
    31    20    21 ar  
    32    20    25 ar  
    33    21    22 ar  
    34    21    33 1   
    35    22    23 ar  
    36    22    34 1   
    37    23    24 ar  
    38    23    35 1   
    39    24    25 ar  
    40    24    36 1   
    41    25    37 1   
@<TRIPOS>SUBSTRUCTURE
     1 824         1 TEMP              0 ****  ****    0 ROOT
