@<TRIPOS>MOLECULE
824
   37    41     1     0     0
SMALL
No Charge or Current Charge


@<TRIPOS>ATOM
      1 O3           6.1550    -0.7080     0.0850 oh         1 824      -0.558100
      2 C19          5.0530     0.1000     0.0240 ca         1 824       0.066100
      3 C20          5.2310     1.5000    -0.0790 ca         1 824      -0.090000
      4 C18          4.1180     2.3630    -0.1460 ca         1 824      -0.134000
      5 C16          2.8500     1.7780    -0.1060 ca         1 824      -0.010200
      6 C15          2.6380     0.4020    -0.0030 cp         1 824      -0.075000
      7 C17          3.7540    -0.4610     0.0620 ca         1 824      -0.059000
      8 C13          1.1850     0.1790     0.0080 cp         1 824      -0.031000
      9 C14          0.5540     1.4280    -0.0890 ca         1 824       0.012800
     10 N2           1.5830     2.3750    -0.1570 na         1 824      -0.227600
     11 C4           0.3270    -0.9370     0.1010 ca         1 824      -0.084600
     12 C5           0.6380    -2.3890     0.2610 c          1 824       0.590600
     13 O1           1.7080    -2.9700     0.3170 o          1 824      -0.496000
     14 C3          -1.0550    -0.7770     0.0880 ca         1 824      -0.177600
     15 C6          -1.6770    -2.1230     0.2640 c          1 824       0.591600
     16 O2          -2.8510    -2.4410     0.3510 o          1 824      -0.484000
     17 N1          -0.6010    -2.9620     0.3420 ns         1 824      -0.491500
     18 C2          -1.7070     0.4830    -0.0200 cp         1 824       0.063000
     19 C1          -0.8440     1.6160    -0.1020 ca         1 824      -0.137000
     20 C7          -3.1880     0.6610    -0.0500 cp         1 824      -0.053000
     21 C8          -3.8240     1.5470     0.8530 ca         1 824      -0.081000
     22 C9          -5.2160     1.7410     0.8160 ca         1 824      -0.111500
     23 C10         -5.9960     1.0590    -0.1330 ca         1 824      -0.098000
     24 C11         -5.3820     0.1870    -1.0470 ca         1 824      -0.111500
     25 C12         -3.9900    -0.0060    -1.0090 ca         1 824      -0.081000
     26 HO3          5.8650    -1.6440     0.1540 ho         1 824       0.458000
     27 H20          6.2360     1.9150    -0.1070 ha         1 824       0.125000
     28 H18          4.2430     3.4400    -0.2270 ha         1 824       0.121000
     29 H17          3.6300    -1.5340     0.1380 ha         1 824       0.154000
     30 HN2          1.4300     3.3740    -0.2340 hn         1 824       0.359000
     31 HN1         -0.7150    -3.9560     0.4680 hn         1 824       0.347500
     32 H1          -1.2610     2.6160    -0.1850 ha         1 824       0.128000
     33 H8          -3.2300     2.0810     1.5910 ha         1 824       0.115000
     34 H9          -5.6890     2.4210     1.5210 ha         1 824       0.115000
     35 H10         -7.0730     1.2100    -0.1630 ha         1 824       0.114000
     36 H11         -5.9830    -0.3360    -1.7880 ha         1 824       0.115000
     37 H12         -3.5240    -0.6740    -1.7290 ha         1 824       0.115000
@<TRIPOS>BOND
     1     1     2 1   
     2     1    26 1   
     3     2     3 ar  
     4     2     7 ar  
     5     3     4 ar  
     6     3    27 1   
     7     4     5 ar  
     8     4    28 1   
     9     5     6 ar  
    10     5    10 1   
    11     6     7 ar  
    12     6     8 1   
    13     7    29 1   
    14     8     9 ar  
    15     8    11 ar  
    16     9    10 1   
    17     9    19 ar  
    18    10    30 1   
    19    11    12 1   
    20    11    14 ar  
    21    12    13 2   
    22    12    17 1   
    23    14    15 1   
    24    14    18 ar  
    25    15    16 2   
    26    15    17 1   
    27    17    31 1   
    28    18    19 ar  
    29    18    20 1   
    30    19    32 1   
    31    20    21 ar  
    32    20    25 ar  
    33    21    22 ar  
    34    21    33 1   
    35    22    23 ar  
    36    22    34 1   
    37    23    24 ar  
    38    23    35 1   
    39    24    25 ar  
    40    24    36 1   
    41    25    37 1   
@<TRIPOS>SUBSTRUCTURE
     1 824         1 TEMP              0 ****  ****    0 ROOT
