@<TRIPOS>MOLECULE
825
   46    48     1     0     0
SMALL
No Charge or Current Charge


@<TRIPOS>ATOM
      1 O57         -4.7160     0.9070     1.9230 o          1 825      -0.536100
      2 C56         -4.3210     0.2660     0.9530 c          1 825       0.586700
      3 C55         -5.2930    -0.5930     0.1740 ca         1 825      -0.158600
      4 C62         -6.3790    -1.1980     0.8460 ca         1 825      -0.061000
      5 C61         -7.2990    -1.9960     0.1450 ca         1 825      -0.132000
      6 C60         -7.1520    -2.1930    -1.2370 ca         1 825      -0.099000
      7 C59         -6.0860    -1.5850    -1.9180 ca         1 825      -0.132000
      8 C58         -5.1620    -0.7870    -1.2210 ca         1 825      -0.061000
      9 C20         -2.8420     0.3440     0.5000 c3         1 825      -0.105400
     10 C4          -2.5260     1.7040    -0.1370 ca         1 825      -0.071300
     11 C3          -2.1730     1.7790    -1.5010 ca         1 825      -0.097000
     12 C2          -1.8730     3.0180    -2.0920 ca         1 825      -0.103500
     13 C5          -2.5650     2.8910     0.6250 ca         1 825      -0.097000
     14 C6          -2.2640     4.1290     0.0330 ca         1 825      -0.103500
     15 C1          -1.9190     4.1940    -1.3260 ca         1 825      -0.105000
     16 C44         -1.8760    -0.0080     1.6590 c3         1 825       0.001900
     17 C36         -0.4210    -0.0550     1.2050 ca         1 825      -0.136300
     18 C37          0.0640    -1.1620     0.4930 ca         1 825      -0.131000
     19 C38          1.4000    -1.2100     0.0570 ca         1 825      -0.000900
     20 Br1          1.9250    -2.7870    -0.9170 br         1 825      -0.151100
     21 C39          2.2950    -0.1370     0.3290 ca         1 825      -0.018300
     22 C40          1.7860     0.9730     1.0480 ca         1 825      -0.041000
     23 C35          0.4480     1.0120     1.4780 ca         1 825      -0.114000
     24 C45          3.7690    -0.1850    -0.1460 c3         1 825      -0.050700
     25 F46          4.3810    -1.2890     0.3590 f          1 825      -0.150500
     26 F47          3.8140    -0.3160    -1.4980 f          1 825      -0.150500
     27 P48          4.9170     1.2730     0.2730 p5         1 825       1.266500
     28 O49          4.9970     1.4420     1.7550 o          1 825      -0.901167
     29 O50          6.2880     1.0140    -0.2650 o          1 825      -0.901167
     30 O51          4.3820     2.5280    -0.3390 o          1 825      -0.901167
     31 H62         -6.5080    -1.0560     1.9180 ha         1 825       0.128000
     32 H61         -8.1280    -2.4610     0.6740 ha         1 825       0.107500
     33 H60         -7.8660    -2.8090    -1.7790 ha         1 825       0.101000
     34 H59         -5.9770    -1.7290    -2.9910 ha         1 825       0.107500
     35 H58         -4.3600    -0.3110    -1.7790 ha         1 825       0.128000
     36 H20         -2.7010    -0.4300    -0.2610 hc         1 825       0.071700
     37 H3          -2.1240     0.8770    -2.1060 ha         1 825       0.112000
     38 H2          -1.6010     3.0650    -3.1450 ha         1 825       0.109500
     39 H5          -2.8270     2.8580     1.6800 ha         1 825       0.112000
     40 H6          -2.2970     5.0380     0.6290 ha         1 825       0.109500
     41 H1          -1.6850     5.1520    -1.7840 ha         1 825       0.106000
     42 H44         -1.9970     0.7130     2.4780 hc         1 825       0.044200
     43 H44A        -2.1610    -0.9830     2.0750 hc         1 825       0.044200
     44 H37         -0.6010    -1.9920     0.2710 ha         1 825       0.085000
     45 H40          2.4120     1.8270     1.2850 ha         1 825       0.190000
     46 H35          0.0890     1.8830     2.0220 ha         1 825       0.097000
@<TRIPOS>BOND
     1     1     2 2   
     2     2     3 1   
     3     2     9 1   
     4     3     4 ar  
     5     3     8 ar  
     6     4     5 ar  
     7     4    31 1   
     8     5     6 ar  
     9     5    32 1   
    10     6     7 ar  
    11     6    33 1   
    12     7     8 ar  
    13     7    34 1   
    14     8    35 1   
    15     9    10 1   
    16     9    16 1   
    17     9    36 1   
    18    10    11 ar  
    19    10    13 ar  
    20    11    12 ar  
    21    11    37 1   
    22    12    15 ar  
    23    12    38 1   
    24    13    14 ar  
    25    13    39 1   
    26    14    15 ar  
    27    14    40 1   
    28    15    41 1   
    29    16    17 1   
    30    16    42 1   
    31    16    43 1   
    32    17    18 ar  
    33    17    23 ar  
    34    18    19 ar  
    35    18    44 1   
    36    19    20 1   
    37    19    21 ar  
    38    21    22 ar  
    39    21    24 1   
    40    22    23 ar  
    41    22    45 1   
    42    23    46 1   
    43    24    25 1   
    44    24    26 1   
    45    24    27 1   
    46    27    28 1   
    47    27    29 1   
    48    27    30 1   
@<TRIPOS>SUBSTRUCTURE
     1 825         1 TEMP              0 ****  ****    0 ROOT
