@<TRIPOS>MOLECULE
825
   46    48     1     0     0
SMALL
bcc


@<TRIPOS>ATOM
      1 O57         -4.3550    -0.3790     2.4000 o          1 825      -0.536100
      2 C56         -4.0800    -0.4170     1.2200 c          1 825       0.586700
      3 C55         -5.1500    -0.6200     0.2030 ca         1 825      -0.158600
      4 C62         -6.4820    -0.4920     0.6040 ca         1 825      -0.079000
      5 C61         -7.5110    -0.6780    -0.3030 ca         1 825      -0.150000
      6 C60         -7.2250    -1.0050    -1.6230 ca         1 825      -0.117000
      7 C59         -5.9050    -1.1410    -2.0310 ca         1 825      -0.150000
      8 C58         -4.8740    -0.9450    -1.1250 ca         1 825      -0.079000
      9 C20         -2.6510    -0.2110     0.7420 c3         1 825      -0.105400
     10 C4          -2.5470     1.1270     0.0420 ca         1 825      -0.071300
     11 C3          -1.9760     1.2230    -1.2220 ca         1 825      -0.115000
     12 C2          -1.8320     2.4560    -1.8420 ca         1 825      -0.121500
     13 C5          -2.9710     2.2910     0.6790 ca         1 825      -0.115000
     14 C6          -2.8310     3.5250     0.0600 ca         1 825      -0.121500
     15 C1          -2.2600     3.6110    -1.2030 ca         1 825      -0.123000
     16 C44         -1.6420    -0.3250     1.8960 c3         1 825       0.001900
     17 C36         -0.2330    -0.2040     1.3920 ca         1 825      -0.136300
     18 C37          0.4300    -1.3230     0.9000 ca         1 825      -0.149000
     19 C38          1.7150    -1.2160     0.3890 ca         1 825      -0.000900
     20 BR1          2.4940    -2.8340    -0.2280 br         1 825      -0.151100
     21 C39          2.3920     0.0060     0.3430 ca         1 825      -0.018300
     22 C40          1.7120     1.1120     0.8470 ca         1 825      -0.059000
     23 C35          0.4300     1.0150     1.3630 ca         1 825      -0.132000
     24 C45          3.7890     0.1640    -0.2100 c3         1 825       0.349700
     25 F46          4.6130    -0.6840     0.5100 f          1 825      -0.271800
     26 F47          3.7830    -0.3570    -1.4920 f          1 825      -0.271800
     27 P48          4.6170     1.8710    -0.2890 p5         1 825       1.108700
     28 O49          4.6780     2.3150     1.1690 o          1 825      -0.901167
     29 O50          5.9660     1.5350    -0.9160 o          1 825      -0.901167
     30 O51          3.6800     2.6820    -1.1780 o          1 825      -0.901167
     31 H62         -6.7130    -0.2370     1.6300 ha         1 825       0.146000
     32 H61         -8.5390    -0.5690     0.0180 ha         1 825       0.125500
     33 H60         -8.0290    -1.1530    -2.3320 ha         1 825       0.119000
     34 H59         -5.6750    -1.4000    -3.0560 ha         1 825       0.125500
     35 H58         -3.8560    -1.0650    -1.4680 ha         1 825       0.146000
     36 H20         -2.4200    -0.9940     0.0130 hc         1 825       0.071700
     37 H3          -1.6320     0.3250    -1.7210 ha         1 825       0.130000
     38 H2          -1.3800     2.5150    -2.8240 ha         1 825       0.127500
     39 H5          -3.4100     2.2430     1.6690 ha         1 825       0.130000
     40 H6          -3.1650     4.4220     0.5670 ha         1 825       0.127500
     41 H1          -2.1480     4.5740    -1.6850 ha         1 825       0.124000
     42 H44         -1.8380     0.4490     2.6410 hc         1 825       0.044200
     43 H44A        -1.7750    -1.2890     2.3930 hc         1 825       0.044200
     44 H37         -0.0690    -2.2840     0.9240 ha         1 825       0.103000
     45 H40          2.2010     2.0740     0.8390 ha         1 825       0.208000
     46 H35         -0.0590     1.9040     1.7410 ha         1 825       0.115000
@<TRIPOS>BOND
     1     1     2 2   
     2     2     3 1   
     3     2     9 1   
     4     3     4 ar  
     5     3     8 ar  
     6     4     5 ar  
     7     4    31 1   
     8     5     6 ar  
     9     5    32 1   
    10     6     7 ar  
    11     6    33 1   
    12     7     8 ar  
    13     7    34 1   
    14     8    35 1   
    15     9    10 1   
    16     9    16 1   
    17     9    36 1   
    18    10    11 ar  
    19    10    13 ar  
    20    11    12 ar  
    21    11    37 1   
    22    12    15 ar  
    23    12    38 1   
    24    13    14 ar  
    25    13    39 1   
    26    14    15 ar  
    27    14    40 1   
    28    15    41 1   
    29    16    17 1   
    30    16    42 1   
    31    16    43 1   
    32    17    18 ar  
    33    17    23 ar  
    34    18    19 ar  
    35    18    44 1   
    36    19    20 1   
    37    19    21 ar  
    38    21    22 ar  
    39    21    24 1   
    40    22    23 ar  
    41    22    45 1   
    42    23    46 1   
    43    24    25 1   
    44    24    26 1   
    45    24    27 1   
    46    27    28 1   
    47    27    29 1   
    48    27    30 1   
@<TRIPOS>SUBSTRUCTURE
     1 825         1 TEMP              0 ****  ****    0 ROOT
