@<TRIPOS>MOLECULE
826
   52    56     1     0     0
SMALL
No Charge or Current Charge


@<TRIPOS>ATOM
      1 O01          8.8070     3.9270    -7.0580 oh         1 826      -0.528100
      2 C02          8.5610     2.9040    -6.1950 ca         1 826       0.158100
      3 C03          8.5220     3.1360    -4.8130 ca         1 826      -0.189500
      4 C04          8.2690     2.0740    -3.9270 ca         1 826      -0.032500
      5 C05          8.0370     0.7680    -4.4190 ca         1 826      -0.187600
      6 C06          8.1060     0.5440    -5.8110 ca         1 826      -0.032500
      7 C07          8.3590     1.6100    -6.6920 ca         1 826      -0.189500
      8 C08          7.7780    -0.4030    -3.4940 c          1 826       0.622700
      9 O09          8.2150    -1.5140    -3.7680 o          1 826      -0.590100
     10 N10          7.1090    -0.1720    -2.2710 n          1 826      -0.402800
     11 C11          7.0780    -1.1990    -1.1930 c6         1 826       0.092000
     12 C12          5.7350    -1.9650    -1.1510 c6         1 826      -0.026200
     13 C13          4.5910    -0.9860    -1.1890 cc         1 826      -0.126400
     14 C14          4.7420     0.3190    -1.6430 cd         1 826      -0.092300
     15 C15          6.0650     0.8850    -2.1300 c6         1 826       0.164200
     16 N16          3.4860     0.9780    -1.6000 na         1 826      -0.082700
     17 C17          2.5710     0.0400    -1.1350 ca         1 826      -0.038200
     18 C18          3.2020    -1.1470    -0.8770 ca         1 826      -0.085800
     19 C19          2.5130    -2.2710    -0.4000 ca         1 826      -0.060000
     20 C20          1.1240    -2.1530    -0.1860 ca         1 826      -0.141000
     21 C21          0.4640    -0.9310    -0.4520 ca         1 826      -0.093000
     22 C22          1.1870     0.1820    -0.9330 ca         1 826      -0.132000
     23 C23          3.1100     2.3250    -2.0840 c3         1 826       0.131900
     24 C24          4.2290     3.3600    -2.0340 ca         1 826      -0.160300
     25 C25          4.7460     3.9060    -3.2260 ca         1 826      -0.055000
     26 C26          5.8000     4.8340    -3.1760 ca         1 826      -0.177500
     27 C27          6.3390     5.2230    -1.9420 ca         1 826       0.148100
     28 O28          7.3650     6.1190    -1.9080 oh         1 826      -0.531100
     29 C29          5.8220     4.6910    -0.7510 ca         1 826      -0.177500
     30 C30          4.7670     3.7620    -0.7950 ca         1 826      -0.055000
     31 HO1          8.9340     4.7480    -6.5360 ho         1 826       0.467000
     32 HC3          8.6950     4.1330    -4.4150 ha         1 826       0.124500
     33 HC4          8.2750     2.2720    -2.8570 ha         1 826       0.126500
     34 HC6          7.9520    -0.4560    -6.2130 ha         1 826       0.126500
     35 HC7          8.3990     1.4290    -7.7640 ha         1 826       0.124500
     36 H111         7.2270    -0.6920    -0.2290 h1         1 826       0.061700
     37 H112         7.9080    -1.9100    -1.3080 h1         1 826       0.061700
     38 H121         5.6920    -2.5910    -0.2500 hc         1 826       0.059700
     39 H122         5.6770    -2.6460    -2.0100 hc         1 826       0.059700
     40 H151         5.8930     1.3750    -3.0980 h1         1 826       0.064200
     41 H152         6.4270     1.6480    -1.4270 h1         1 826       0.064200
     42 H19          3.0330    -3.2060    -0.2030 ha         1 826       0.115000
     43 H20          0.5590    -3.0050     0.1840 ha         1 826       0.111000
     44 H21         -0.6080    -0.8480    -0.2860 ha         1 826       0.110000
     45 H22          0.6760     1.1180    -1.1410 ha         1 826       0.112000
     46 H231         2.2770     2.6960    -1.4740 h1         1 826       0.063700
     47 H232         2.7420     2.2240    -3.1130 h1         1 826       0.063700
     48 H25          4.3420     3.6040    -4.1900 ha         1 826       0.119000
     49 H26          6.2000     5.2480    -4.0980 ha         1 826       0.123500
     50 H28          7.6020     6.2820    -0.9700 ho         1 826       0.468000
     51 H29          6.2330     4.9870     0.2110 ha         1 826       0.123500
     52 H30          4.3750     3.3460     0.1310 ha         1 826       0.119000
@<TRIPOS>BOND
     1     1     2 1   
     2     1    31 1   
     3     2     3 ar  
     4     2     7 ar  
     5     3     4 ar  
     6     3    32 1   
     7     4     5 ar  
     8     4    33 1   
     9     5     6 ar  
    10     5     8 1   
    11     6     7 ar  
    12     6    34 1   
    13     7    35 1   
    14     8     9 2   
    15     8    10 1   
    16    10    11 1   
    17    10    15 1   
    18    11    12 1   
    19    11    36 1   
    20    11    37 1   
    21    12    13 1   
    22    12    38 1   
    23    12    39 1   
    24    13    14 2   
    25    13    18 1   
    26    14    15 1   
    27    14    16 1   
    28    15    40 1   
    29    15    41 1   
    30    16    17 1   
    31    16    23 1   
    32    17    18 ar  
    33    17    22 ar  
    34    18    19 ar  
    35    19    20 ar  
    36    19    42 1   
    37    20    21 ar  
    38    20    43 1   
    39    21    22 ar  
    40    21    44 1   
    41    22    45 1   
    42    23    24 1   
    43    23    46 1   
    44    23    47 1   
    45    24    25 ar  
    46    24    30 ar  
    47    25    26 ar  
    48    25    48 1   
    49    26    27 ar  
    50    26    49 1   
    51    27    28 1   
    52    27    29 ar  
    53    28    50 1   
    54    29    30 ar  
    55    29    51 1   
    56    30    52 1   
@<TRIPOS>SUBSTRUCTURE
     1 826         1 TEMP              0 ****  ****    0 ROOT
