@<TRIPOS>MOLECULE
826
   52    56     1     0     0
SMALL
abcg2


@<TRIPOS>ATOM
      1 O01          8.5120     2.6170    -8.2200 oh         1 826      -0.528100
      2 C02          8.3680     1.9070    -7.0890 ca         1 826       0.158100
      3 C03          8.5840     2.4530    -5.8250 ca         1 826      -0.189500
      4 C04          8.4080     1.6710    -4.6970 ca         1 826      -0.032500
      5 C05          8.0270     0.3350    -4.8000 ca         1 826      -0.187600
      6 C06          7.8410    -0.2060    -6.0710 ca         1 826      -0.032500
      7 C07          7.9910     0.5690    -7.2050 ca         1 826      -0.189500
      8 C08          7.9260    -0.5590    -3.6130 c          1 826       0.622700
      9 O09          8.4160    -1.6800    -3.6520 o          1 826      -0.590100
     10 N10          7.3320    -0.0710    -2.4950 n          1 826      -0.402800
     11 C11          7.3450    -0.8670    -1.2740 c6         1 826       0.092000
     12 C12          6.0610    -1.6790    -1.1240 c6         1 826      -0.026200
     13 C13          4.9060    -0.7680    -1.3700 cc         1 826      -0.126400
     14 C14          5.0550     0.4430    -1.9780 cd         1 826      -0.092300
     15 C15          6.3400     0.9920    -2.5040 c6         1 826       0.164200
     16 N16          3.8500     1.0960    -2.0560 na         1 826      -0.082700
     17 C17          2.8920     0.3000    -1.4800 ca         1 826      -0.038200
     18 C18          3.5210    -0.8890    -1.0410 ca         1 826      -0.085800
     19 C19          2.7560    -1.8770    -0.4140 ca         1 826      -0.060000
     20 C20          1.4020    -1.6660    -0.2390 ca         1 826      -0.141000
     21 C21          0.7950    -0.4790    -0.6790 ca         1 826      -0.093000
     22 C22          1.5270     0.5160    -1.3010 ca         1 826      -0.132000
     23 C23          3.6610     2.4220    -2.5950 c3         1 826       0.131900
     24 C24          4.2710     3.5010    -1.7370 ca         1 826      -0.160300
     25 C25          5.0710     4.4890    -2.3010 ca         1 826      -0.055000
     26 C26          5.6230     5.5000    -1.5310 ca         1 826      -0.177500
     27 C27          5.3820     5.5360    -0.1600 ca         1 826       0.148100
     28 O28          5.9380     6.5350     0.5540 oh         1 826      -0.531100
     29 C29          4.5890     4.5470     0.4200 ca         1 826      -0.177500
     30 C30          4.0430     3.5450    -0.3650 ca         1 826      -0.055000
     31 HO1          8.7760     3.5220    -8.0210 ho         1 826       0.467000
     32 HC3          8.8920     3.4870    -5.7210 ha         1 826       0.124500
     33 HC4          8.5900     2.1140    -3.7250 ha         1 826       0.126500
     34 HC6          7.5620    -1.2470    -6.1790 ha         1 826       0.126500
     35 HC7          7.8240     0.1410    -8.1860 ha         1 826       0.124500
     36 H111         7.4360    -0.1720    -0.4340 h1         1 826       0.061700
     37 H112         8.2240    -1.5040    -1.2680 h1         1 826       0.061700
     38 H121         6.0210    -2.1070    -0.1190 hc         1 826       0.059700
     39 H122         6.0650    -2.5220    -1.8220 hc         1 826       0.059700
     40 H151         6.2000     1.3610    -3.5200 h1         1 826       0.064200
     41 H152         6.6800     1.8420    -1.9010 h1         1 826       0.064200
     42 H19          3.2190    -2.7930    -0.0680 ha         1 826       0.115000
     43 H20          0.7980    -2.4220     0.2450 ha         1 826       0.111000
     44 H21         -0.2670    -0.3370    -0.5270 ha         1 826       0.110000
     45 H22          1.0440     1.4270    -1.6320 ha         1 826       0.112000
     46 H231         2.5880     2.5840    -2.7110 h1         1 826       0.063700
     47 H232         4.0770     2.4690    -3.6050 h1         1 826       0.063700
     48 H25          5.2750     4.4700    -3.3660 ha         1 826       0.119000
     49 H26          6.2450     6.2590    -1.9900 ha         1 826       0.123500
     50 H28          5.7010     6.4550     1.4840 ho         1 826       0.468000
     51 H29          4.3950     4.5590     1.4870 ha         1 826       0.123500
     52 H30          3.4330     2.7870     0.1120 ha         1 826       0.119000
@<TRIPOS>BOND
     1     1     2 1   
     2     1    31 1   
     3     2     3 ar  
     4     2     7 ar  
     5     3     4 ar  
     6     3    32 1   
     7     4     5 ar  
     8     4    33 1   
     9     5     6 ar  
    10     5     8 1   
    11     6     7 ar  
    12     6    34 1   
    13     7    35 1   
    14     8     9 2   
    15     8    10 1   
    16    10    11 1   
    17    10    15 1   
    18    11    12 1   
    19    11    36 1   
    20    11    37 1   
    21    12    13 1   
    22    12    38 1   
    23    12    39 1   
    24    13    14 2   
    25    13    18 1   
    26    14    15 1   
    27    14    16 1   
    28    15    40 1   
    29    15    41 1   
    30    16    17 1   
    31    16    23 1   
    32    17    18 ar  
    33    17    22 ar  
    34    18    19 ar  
    35    19    20 ar  
    36    19    42 1   
    37    20    21 ar  
    38    20    43 1   
    39    21    22 ar  
    40    21    44 1   
    41    22    45 1   
    42    23    24 1   
    43    23    46 1   
    44    23    47 1   
    45    24    25 ar  
    46    24    30 ar  
    47    25    26 ar  
    48    25    48 1   
    49    26    27 ar  
    50    26    49 1   
    51    27    28 1   
    52    27    29 ar  
    53    28    50 1   
    54    29    30 ar  
    55    29    51 1   
    56    30    52 1   
@<TRIPOS>SUBSTRUCTURE
     1 826         1 TEMP              0 ****  ****    0 ROOT
