@<TRIPOS>MOLECULE
827
   71    73     1     0     0
SMALL
bcc


@<TRIPOS>ATOM
      1 C13         -3.0480     1.2570    -0.3060 c6         1 827       0.348900
      2 C15         -4.5870    -0.4720    -0.8920 c6         1 827       0.110100
      3 C20         -5.2900     1.2530     0.7960 c6         1 827       0.153100
      4 C22         -4.1570     2.1300     0.2820 c6         1 827       0.147500
      5 C24         -1.4740    -1.4290     1.5940 c6         1 827       0.171500
      6 C02          5.1010     1.4620    -1.0240 c6         1 827       0.096800
      7 C04          3.6640     1.6120    -1.5190 c6         1 827       0.113400
      8 C06          3.0890    -0.6340    -1.0670 c6         1 827       0.302900
      9 C11         -1.4670    -0.4260     0.4420 c6         1 827       0.159100
     10 C18         -5.7640     0.3080    -0.3020 c6         1 827       0.080100
     11 C27          0.9470    -1.9840     1.1500 c6         1 827       0.137500
     12 C09         -0.0710     0.1770     0.2980 c6         1 827       0.121100
     13 C31          5.1530     0.3330     0.0230 c6         1 827       0.191500
     14 C16         -4.9950    -1.2580    -2.1190 c3         1 827       0.148400
     15 O14         -3.5620     0.4240    -1.3000 os         1 827      -0.413600
     16 O12         -2.4430     0.5550     0.7450 os         1 827      -0.427600
     17 C26         -0.4660    -2.5330     1.3070 c6         1 827      -0.117400
     18 C08          0.9680    -0.9220     0.0580 c6         1 827       0.127100
     19 O10         -0.0770     1.0850    -0.7760 oh         1 827      -0.594800
     20 O07          2.2430    -0.3140     0.0010 os         1 827      -0.450600
     21 C29          4.4930    -0.9360    -0.5310 c6         1 827       0.158100
     22 O05          3.1200     0.4010    -2.0050 os         1 827      -0.403600
     23 O03          5.9470     1.0570    -2.0880 oh         1 827      -0.586800
     24 N32          6.4970     0.0350     0.4850 n7         1 827      -0.811200
     25 C33          6.8170     0.4960     1.8180 c3         1 827       0.163100
     26 O30          4.4840    -1.9400     0.4440 oh         1 827      -0.617800
     27 N28          1.9470    -3.0050     0.8580 n8         1 827      -0.890800
     28 N25         -2.7970    -2.0080     1.7560 n8         1 827      -0.884800
     29 N23         -3.6420     2.9770     1.3420 n8         1 827      -0.866800
     30 O21         -6.3320     2.1010     1.2220 oh         1 827      -0.604800
     31 O19         -6.7230    -0.5600     0.2670 oh         1 827      -0.600800
     32 H1          -2.3220     1.8910    -0.8220 h2         1 827       0.090700
     33 H2          -4.2060    -1.1740    -0.1400 h1         1 827       0.092700
     34 H3          -4.9140     0.6570     1.6420 h1         1 827       0.068700
     35 H4          -4.5490     2.7090    -0.5700 h1         1 827       0.036700
     36 H5          -1.1410    -0.8970     2.5010 h1         1 827       0.029700
     37 H6           3.0480     2.0330    -0.7140 h1         1 827       0.048200
     38 H7           3.6260     2.3200    -2.3510 h1         1 827       0.048200
     39 H8           2.7000    -1.5070    -1.6070 h2         1 827       0.073700
     40 H9          -1.7310    -0.9580    -0.4820 h1         1 827       0.084700
     41 H11         -6.2160     0.9200    -1.0970 h1         1 827       0.046700
     42 H12          1.2440    -1.5080     2.0910 h1         1 827       0.077700
     43 H13          0.1810     0.6890     1.2400 h1         1 827       0.049700
     44 H14          4.5580     0.6660     0.8810 h1         1 827       0.061700
     45 H18         -5.8570    -1.8850    -1.8610 h1         1 827       0.020700
     46 H19         -5.3280    -0.5600    -2.9000 h1         1 827       0.020700
     47 H20         -0.4790    -3.2650     2.1200 hc         1 827       0.054200
     48 H21         -0.7640    -3.0640     0.3960 hc         1 827       0.054200
     49 H22          0.7300    -1.3990    -0.9060 h1         1 827       0.055700
     50 H23          0.7870     1.5070    -0.8210 ho         1 827       0.418000
     51 H24          5.0810    -1.2710    -1.3980 h1         1 827       0.071700
     52 H25          6.0700     1.8010    -2.6870 ho         1 827       0.401000
     53 H26          7.1820     0.3630    -0.1820 hn         1 827       0.372800
     54 H28          6.6720     1.5720     1.9880 h1         1 827       0.023700
     55 H29          6.2070    -0.0340     2.5510 h1         1 827       0.023700
     56 H30          7.8600     0.2680     2.0400 h1         1 827       0.023700
     57 H31          3.5730    -2.3020     0.5710 ho         1 827       0.445000
     58 H32          2.0290    -3.6380     1.6450 hn         1 827       0.351300
     59 H33          1.6460    -3.5740     0.0740 hn         1 827       0.351300
     60 H35         -2.7680    -2.6850     2.5090 hn         1 827       0.347800
     61 H36         -3.4420    -1.2910     2.0630 hn         1 827       0.347800
     62 H38         -2.8820     3.5400     0.9800 hn         1 827       0.346800
     63 H39         -4.3600     3.6370     1.6110 hn         1 827       0.346800
     64 H41         -7.0220     1.5540     1.6090 ho         1 827       0.419000
     65 H42         -7.3720    -0.7930    -0.4010 ho         1 827       0.409000
     66 O17         -3.9040    -2.0400    -2.5460 oh         1 827      -0.580800
     67 C01          5.5620     2.7960    -0.4480 c3         1 827      -0.125100
     68 H10         -4.1700    -2.5100    -3.3410 ho         1 827       0.402000
     69 H15          5.4860     3.5870    -1.1990 hc         1 827       0.044700
     70 H16          4.9550     3.0950     0.4060 hc         1 827       0.044700
     71 H17          6.6010     2.7480    -0.1240 hc         1 827       0.044700
@<TRIPOS>BOND
     1     1     4 1   
     2     1    15 1   
     3     1    16 1   
     4     1    32 1   
     5     2    10 1   
     6     2    14 1   
     7     2    15 1   
     8     2    33 1   
     9     3     4 1   
    10     3    10 1   
    11     3    30 1   
    12     3    34 1   
    13     4    29 1   
    14     4    35 1   
    15     5     9 1   
    16     5    17 1   
    17     5    28 1   
    18     5    36 1   
    19     6     7 1   
    20     6    13 1   
    21     6    23 1   
    22     6    67 1   
    23     7    22 1   
    24     7    37 1   
    25     7    38 1   
    26     8    20 1   
    27     8    21 1   
    28     8    22 1   
    29     8    39 1   
    30     9    12 1   
    31     9    16 1   
    32     9    40 1   
    33    10    31 1   
    34    10    41 1   
    35    11    17 1   
    36    11    18 1   
    37    11    27 1   
    38    11    42 1   
    39    12    18 1   
    40    12    19 1   
    41    12    43 1   
    42    13    21 1   
    43    13    24 1   
    44    13    44 1   
    45    14    45 1   
    46    14    46 1   
    47    14    66 1   
    48    17    47 1   
    49    17    48 1   
    50    18    20 1   
    51    18    49 1   
    52    19    50 1   
    53    21    26 1   
    54    21    51 1   
    55    23    52 1   
    56    24    25 1   
    57    24    53 1   
    58    25    54 1   
    59    25    55 1   
    60    25    56 1   
    61    26    57 1   
    62    27    58 1   
    63    27    59 1   
    64    28    60 1   
    65    28    61 1   
    66    29    62 1   
    67    29    63 1   
    68    30    64 1   
    69    31    65 1   
    70    66    68 1   
    71    67    69 1   
    72    67    70 1   
    73    67    71 1   
@<TRIPOS>SUBSTRUCTURE
     1 827         1 TEMP              0 ****  ****    0 ROOT
