@<TRIPOS>MOLECULE
827
   71    73     1     0     0
SMALL
No Charge or Current Charge


@<TRIPOS>ATOM
      1 C13         -3.1600     1.2620    -0.0220 c6         1 827       0.395300
      2 C15         -4.7830    -0.3310    -0.9470 c6         1 827       0.133300
      3 C20         -5.5690     1.2830     0.8530 c6         1 827       0.176300
      4 C22         -4.3140     2.1660     0.5610 c6         1 827       0.147500
      5 C24         -1.4670    -1.7570     1.5620 c6         1 827       0.171500
      6 C02          5.3680     1.3520    -1.1630 c6         1 827       0.120000
      7 C04          3.9230     1.5080    -1.7220 c6         1 827       0.136600
      8 C06          3.2000    -0.6520    -0.9110 c6         1 827       0.349300
      9 C11         -1.5620    -0.5510     0.5610 c6         1 827       0.182300
     10 C18         -5.9970     0.4980    -0.4220 c6         1 827       0.103300
     11 C27          1.0330    -2.0250     1.0760 c6         1 827       0.137500
     12 C09         -0.1670     0.1730     0.5160 c6         1 827       0.144300
     13 C31          5.3060     0.4470     0.1340 c6         1 827       0.191500
     14 C16         -5.0970    -1.0800    -2.2840 c3         1 827       0.171600
     15 O14         -3.6490     0.5480    -1.1840 os         1 827      -0.460000
     16 O12         -2.6720     0.3120     0.9610 os         1 827      -0.474000
     17 C26         -0.3360    -2.7410     1.1730 c6         1 827      -0.117400
     18 C08          0.9490    -0.8190     0.0760 c6         1 827       0.150300
     19 O10         -0.1120     1.3200    -0.3520 oh         1 827      -0.717000
     20 O07          2.1950    -0.0800    -0.0420 os         1 827      -0.497000
     21 C29          4.5580    -0.9110    -0.1640 c6         1 827       0.181300
     22 O05          3.3710     0.2150    -2.0490 os         1 827      -0.450000
     23 O03          6.2100     0.7340    -2.1580 oh         1 827      -0.709000
     24 N32          6.6800     0.2000     0.6810 n7         1 827      -0.866400
     25 C33          7.1170     1.0040     1.8380 c3         1 827       0.163100
     26 O30          4.3590    -1.6960     1.0460 oh         1 827      -0.740000
     27 N28          2.0680    -3.0310     0.7170 n8         1 827      -1.001200
     28 N25         -2.7460    -2.4950     1.6840 n8         1 827      -0.995200
     29 N23         -3.9360     2.9920     1.7600 n8         1 827      -0.977200
     30 O21         -6.6750     2.0790     1.3260 oh         1 827      -0.667000
     31 O19         -7.1400    -0.3360    -0.1220 oh         1 827      -0.723000
     32 H1          -2.3520     1.9360    -0.3320 h2         1 827       0.090700
     33 H2          -4.5060    -1.0860    -0.1980 h1         1 827       0.092700
     34 H3          -5.2920     0.5470     1.6240 h1         1 827       0.068700
     35 H4          -4.6000     2.8840    -0.2230 h1         1 827       0.036700
     36 H5          -1.2460    -1.3490     2.5600 h1         1 827       0.029700
     37 H6           3.2790     2.0160    -0.9900 h1         1 827       0.048200
     38 H7           3.9370     2.1230    -2.6330 h1         1 827       0.048200
     39 H8           2.8440    -1.6220    -1.2880 h2         1 827       0.073700
     40 H9          -1.7760    -0.9620    -0.4360 h1         1 827       0.084700
     41 H11         -6.2650     1.2280    -1.2010 h1         1 827       0.046700
     42 H12          1.2930    -1.6250     2.0700 h1         1 827       0.077700
     43 H13          0.0670     0.4950     1.5420 h1         1 827       0.049700
     44 H14          4.7090     0.9770     0.8930 h1         1 827       0.061700
     45 H18         -5.9210    -1.7830    -2.1020 h1         1 827       0.020700
     46 H19         -5.4520    -0.3420    -3.0160 h1         1 827       0.020700
     47 H20         -0.2780    -3.5470     1.9180 hc         1 827       0.054200
     48 H21         -0.5780    -3.2180     0.2130 hc         1 827       0.054200
     49 H22          0.6780    -1.2030    -0.9200 h1         1 827       0.055700
     50 H23          0.8470     1.4000    -0.5750 ho         1 827       0.517000
     51 H24          5.1870    -1.4840    -0.8610 h1         1 827       0.071700
     52 H25          5.6040     0.2750    -2.7840 ho         1 827       0.500000
     53 H26          7.3330     0.3450    -0.1010 hn         1 827       0.428000
     54 H28          7.1200     2.0760     1.6050 h1         1 827       0.023700
     55 H29          6.4490     0.8440     2.6950 h1         1 827       0.023700
     56 H30          8.1330     0.7190     2.1420 h1         1 827       0.023700
     57 H31          3.4690    -2.1580     0.9300 ho         1 827       0.544000
     58 H32          2.0340    -3.7900     1.4140 hn         1 827       0.406500
     59 H33          1.7650    -3.5190    -0.1380 hn         1 827       0.406500
     60 H35         -2.7150    -3.0750     2.5300 hn         1 827       0.403000
     61 H36         -3.4770    -1.8050     1.8920 hn         1 827       0.403000
     62 H38         -3.4970     3.8640     1.4420 hn         1 827       0.402000
     63 H39         -4.8140     3.3080     2.1910 hn         1 827       0.402000
     64 H41         -7.4600     1.4950     1.2120 ho         1 827       0.458000
     65 H42         -7.6250    -0.4980    -0.9660 ho         1 827       0.508000
     66 O17         -3.9650    -1.7940    -2.8180 oh         1 827      -0.703000
     67 C01          5.9620     2.7620    -0.8790 c3         1 827      -0.125100
     68 H10         -4.2430    -2.1620    -3.6880 ho         1 827       0.501000
     69 H15          5.8870     3.4090    -1.7610 hc         1 827       0.044700
     70 H16          5.4310     3.2600    -0.0590 hc         1 827       0.044700
     71 H17          7.0240     2.7110    -0.6100 hc         1 827       0.044700
@<TRIPOS>BOND
     1     1     4 1   
     2     1    15 1   
     3     1    16 1   
     4     1    32 1   
     5     2    10 1   
     6     2    14 1   
     7     2    15 1   
     8     2    33 1   
     9     3     4 1   
    10     3    10 1   
    11     3    30 1   
    12     3    34 1   
    13     4    29 1   
    14     4    35 1   
    15     5     9 1   
    16     5    17 1   
    17     5    28 1   
    18     5    36 1   
    19     6     7 1   
    20     6    13 1   
    21     6    23 1   
    22     6    67 1   
    23     7    22 1   
    24     7    37 1   
    25     7    38 1   
    26     8    20 1   
    27     8    21 1   
    28     8    22 1   
    29     8    39 1   
    30     9    12 1   
    31     9    16 1   
    32     9    40 1   
    33    10    31 1   
    34    10    41 1   
    35    11    17 1   
    36    11    18 1   
    37    11    27 1   
    38    11    42 1   
    39    12    18 1   
    40    12    19 1   
    41    12    43 1   
    42    13    21 1   
    43    13    24 1   
    44    13    44 1   
    45    14    45 1   
    46    14    46 1   
    47    14    66 1   
    48    17    47 1   
    49    17    48 1   
    50    18    20 1   
    51    18    49 1   
    52    19    50 1   
    53    21    26 1   
    54    21    51 1   
    55    23    52 1   
    56    24    25 1   
    57    24    53 1   
    58    25    54 1   
    59    25    55 1   
    60    25    56 1   
    61    26    57 1   
    62    27    58 1   
    63    27    59 1   
    64    28    60 1   
    65    28    61 1   
    66    29    62 1   
    67    29    63 1   
    68    30    64 1   
    69    31    65 1   
    70    66    68 1   
    71    67    69 1   
    72    67    70 1   
    73    67    71 1   
@<TRIPOS>SUBSTRUCTURE
     1 827         1 TEMP              0 ****  ****    0 ROOT
