@<TRIPOS>MOLECULE
828
   55    58     1     0     0
SMALL
abcg2


@<TRIPOS>ATOM
      1 C02        -11.4720     1.6900    10.7550 c          1 828       0.599600
      2 C04        -12.7960     1.4260     8.6870 c3         1 828       0.197100
      3 C05        -11.7700     1.2070     7.6780 c1         1 828      -0.187100
      4 C06        -10.9090     1.0140     6.8570 cg         1 828      -0.019000
      5 C07         -9.8870     0.8200     5.9020 cc         1 828      -0.118000
      6 C08         -9.6130    -0.3260     5.1600 cd         1 828      -0.129000
      7 C12         -8.9000     1.7460     5.4790 cc         1 828       0.281900
      8 C13        -12.9110    -0.2700    10.4510 cc         1 828       0.524800
      9 C15        -11.7310    -0.1400    12.3290 cd         1 828       0.133400
     10 C16        -11.1420     1.0780    12.0030 cc         1 828      -0.236600
     11 C17        -10.2640     1.4350    13.0830 cc         1 828      -0.103800
     12 C18         -9.4450     2.6210    13.1480 ce         1 828       0.066800
     13 C19         -8.5160     2.8900    14.0720 cf         1 828      -0.511100
     14 C24        -10.3760     0.4150    14.0110 cd         1 828      -0.110000
     15 C26        -11.7140    -1.6850    14.2830 c3         1 828      -0.006400
     16 C27        -13.0110    -1.3800    15.0400 c          1 828       0.592100
     17 C29        -14.6750    -2.5900    16.4290 ca         1 828       0.028000
     18 C30        -15.5190    -1.5190    16.7380 ca         1 828      -0.185000
     19 C31        -16.6410    -1.7490    17.5180 ca         1 828       0.362900
     20 C33        -16.1860    -3.9700    17.7190 ca         1 828       0.374900
     21 C34        -15.0420    -3.8410    16.9480 ca         1 828      -0.002000
     22 N03        -12.4010     0.9170    10.0140 n          1 828      -0.337300
     23 N09         -8.5500    -0.0490     4.3860 na         1 828       0.121800
     24 N11         -8.1000     1.2130     4.5650 nd         1 828      -0.522800
     25 N14        -12.6200    -0.8360    11.5850 nd         1 828      -0.635100
     26 N22         -6.0620     4.0110    13.5580 n8         1 828      -0.992100
     27 N25        -11.2510    -0.5350    13.5500 na         1 828       0.035000
     28 N28        -13.5270    -2.4860    15.6560 ns         1 828      -0.147000
     29 N32        -16.9850    -2.9430    18.0080 nb         1 828      -0.669000
     30 O01        -11.0520     2.7540    10.3040 o          1 828      -0.520000
     31 O21         -8.1380     5.2360    13.0010 o          1 828      -0.540000
     32 O23         -7.4830     4.8660    15.3820 o          1 828      -0.540000
     33 O36        -13.5000    -0.2680    15.0760 o          1 828      -0.536100
     34 S20         -7.5980     4.3750    14.0270 sy         1 828       1.156200
     35 CL35       -14.0710    -5.2540    16.6340 cl         1 828      -0.201000
     36 H1         -13.0060     2.4900     8.7880 h1         1 828       0.079200
     37 H2         -13.7240     0.9270     8.4090 h1         1 828       0.079200
     38 H3         -10.0980    -1.2870     5.1430 h4         1 828       0.157000
     39 H4          -6.8490    -1.0510     3.7070 h1         1 828       0.059033
     40 H5          -8.3960    -1.8930     3.4580 h1         1 828       0.059033
     41 H6          -7.9650    -0.5040     2.4330 h1         1 828       0.059033
     42 H7          -8.7590     2.7620     5.8120 h4         1 828       0.051100
     43 H8         -13.6110    -0.7510     9.7800 h5         1 828       0.054800
     44 H9          -9.6130     3.3460    12.3610 ha         1 828       0.222000
     45 H10         -8.2460     2.2340    14.8900 h4         1 828       0.207000
     46 H11         -9.9010     0.2950    14.9710 h4         1 828       0.159000
     47 H12        -11.8800    -2.5140    13.5950 h1         1 828       0.090700
     48 H13        -10.9460    -1.9860    14.9960 h1         1 828       0.090700
     49 H14        -15.2990    -0.5310    16.3730 ha         1 828       0.162000
     50 H15        -17.2970    -0.9200    17.7590 h4         1 828       0.030100
     51 H16        -16.4560    -4.9440    18.1110 h4         1 828       0.036100
     52 H17         -5.5790     3.4230    14.2310 hn         1 828       0.469000
     53 H18         -6.0240     3.6170    12.6230 hn         1 828       0.469000
     54 H19        -13.0150    -3.3500    15.5290 hn         1 828       0.165000
     55 C10         -7.8960    -0.9270     3.4350 c3         1 828       0.075900
@<TRIPOS>BOND
     1     1    10 1   
     2     1    22 1   
     3     1    30 2   
     4     2     3 1   
     5     2    22 1   
     6     2    36 1   
     7     2    37 1   
     8     3     4 3   
     9     4     5 1   
    10     5     6 2   
    11     5     7 1   
    12     6    23 1   
    13     6    38 1   
    14     7    24 2   
    15     7    42 1   
    16     8    22 1   
    17     8    25 2   
    18     8    43 1   
    19     9    10 2   
    20     9    25 1   
    21     9    27 1   
    22    10    11 1   
    23    11    12 1   
    24    11    14 2   
    25    12    13 2   
    26    12    44 1   
    27    13    34 1   
    28    13    45 1   
    29    14    27 1   
    30    14    46 1   
    31    15    16 1   
    32    15    27 1   
    33    15    47 1   
    34    15    48 1   
    35    16    28 1   
    36    16    33 2   
    37    17    18 ar  
    38    17    21 ar  
    39    17    28 1   
    40    18    19 ar  
    41    18    49 1   
    42    19    29 ar  
    43    19    50 1   
    44    20    21 ar  
    45    20    29 ar  
    46    20    51 1   
    47    21    35 1   
    48    23    24 1   
    49    23    55 1   
    50    26    34 1   
    51    26    52 1   
    52    26    53 1   
    53    28    54 1   
    54    31    34 2   
    55    32    34 2   
    56    39    55 1   
    57    40    55 1   
    58    41    55 1   
@<TRIPOS>SUBSTRUCTURE
     1 828         1 TEMP              0 ****  ****    0 ROOT
