@<TRIPOS>MOLECULE
828
   55    58     1     0     0
SMALL
No Charge or Current Charge


@<TRIPOS>ATOM
      1 C02        -11.4070     1.5850    11.2120 c          1 828       0.599600
      2 C04        -12.7270     1.0330     9.1920 c3         1 828       0.197100
      3 C05        -11.8450     0.6530     8.0810 c1         1 828      -0.187100
      4 C06        -11.0860     0.3260     7.1920 cg         1 828      -0.019000
      5 C07        -10.1780    -0.0730     6.1770 cc         1 828      -0.118000
      6 C08        -10.2120    -1.1930     5.4040 cd         1 828      -0.129000
      7 C12         -9.0420     0.6510     5.7830 cc         1 828       0.281900
      8 C13        -12.4010    -0.6170    11.0090 cc         1 828       0.524800
      9 C15        -11.2010    -0.2030    12.9110 cd         1 828       0.133400
     10 C16        -10.9250     1.0590    12.4950 cc         1 828      -0.236600
     11 C17        -10.1290     1.7000    13.4940 cc         1 828      -0.103800
     12 C18         -9.6050     3.0670    13.4620 ce         1 828       0.066800
     13 C19         -8.7290     3.5910    14.3660 cf         1 828      -0.511100
     14 C24         -9.9430     0.7860    14.5100 cd         1 828      -0.110000
     15 C26        -10.6900    -1.6160    14.9600 c3         1 828      -0.006400
     16 C27        -11.9800    -1.6810    15.7760 c          1 828       0.592100
     17 C29        -14.4830    -2.1290    15.4010 ca         1 828       0.028000
     18 C30        -14.9870    -1.8170    16.6820 ca         1 828      -0.185000
     19 C31        -16.3570    -1.9740    16.9500 ca         1 828       0.362900
     20 C33        -16.7650    -2.7130    14.7960 ca         1 828       0.374900
     21 C34        -15.4080    -2.5850    14.4390 ca         1 828      -0.002000
     22 N03        -12.1710     0.6570    10.5070 n          1 828      -0.337300
     23 N09         -9.0860    -1.0830     4.5790 na         1 828       0.121800
     24 N11         -8.3520     0.0750     4.8170 nd         1 828      -0.522800
     25 N14        -11.9580    -1.0980    12.1750 nd         1 828      -0.635100
     26 N22         -6.8990     5.0300    13.2690 n8         1 828      -0.992100
     27 N25        -10.6090    -0.3920    14.1520 na         1 828       0.035000
     28 N28        -13.1130    -1.9950    15.0380 ns         1 828      -0.147000
     29 N32        -17.2420    -2.4150    16.0290 nb         1 828      -0.669000
     30 O01        -11.1750     2.7110    10.7940 o          1 828      -0.520000
     31 O21         -9.0840     6.1010    13.6530 o          1 828      -0.540000
     32 O23         -7.4790     5.5400    15.5870 o          1 828      -0.540000
     33 O36        -11.9830    -1.4700    16.9830 o          1 828      -0.536100
     34 S20         -8.1260     5.2200    14.3190 sy         1 828       1.156200
     35 Cl35       -14.8890    -3.0040    12.8020 cl         1 828      -0.201000
     36 H1         -12.9160     2.1140     9.1500 h1         1 828       0.079200
     37 H2         -13.6980     0.5380     9.0550 h1         1 828       0.079200
     38 H3         -10.9070    -2.0240     5.3690 h4         1 828       0.157000
     39 H4          -7.6570    -2.4150     3.7900 h1         1 828       0.059033
     40 H5          -9.3610    -2.8880     3.5210 h1         1 828       0.059033
     41 H6          -8.6450    -1.5510     2.5730 h1         1 828       0.059033
     42 H7          -8.6960     1.5970     6.1800 h4         1 828       0.051100
     43 H8         -12.9990    -1.2490    10.3640 h5         1 828       0.054800
     44 H9          -9.9490     3.6990    12.6410 ha         1 828       0.222000
     45 H10         -8.3400     3.0300    15.2180 h4         1 828       0.207000
     46 H11         -9.4040     0.8830    15.4450 h4         1 828       0.159000
     47 H12        -10.6490    -2.4900    14.2990 h1         1 828       0.090700
     48 H13         -9.8400    -1.6580    15.6490 h1         1 828       0.090700
     49 H14        -14.3520    -1.4490    17.4800 ha         1 828       0.162000
     50 H15        -16.7590    -1.7360    17.9340 h4         1 828       0.030100
     51 H16        -17.4960    -3.0660    14.0680 h4         1 828       0.036100
     52 H17         -6.1250     5.4040    13.8110 hn         1 828       0.469000
     53 H18         -6.7610     4.0240    13.3010 hn         1 828       0.469000
     54 H19        -12.9380    -2.1360    14.0490 hn         1 828       0.165000
     55 C10         -8.6610    -2.0440     3.5520 c3         1 828       0.075900
@<TRIPOS>BOND
     1     1    10 1   
     2     1    22 1   
     3     1    30 2   
     4     2     3 1   
     5     2    22 1   
     6     2    36 1   
     7     2    37 1   
     8     3     4 3   
     9     4     5 1   
    10     5     6 2   
    11     5     7 1   
    12     6    23 1   
    13     6    38 1   
    14     7    24 2   
    15     7    42 1   
    16     8    22 1   
    17     8    25 2   
    18     8    43 1   
    19     9    10 2   
    20     9    25 1   
    21     9    27 1   
    22    10    11 1   
    23    11    12 1   
    24    11    14 2   
    25    12    13 2   
    26    12    44 1   
    27    13    34 1   
    28    13    45 1   
    29    14    27 1   
    30    14    46 1   
    31    15    16 1   
    32    15    27 1   
    33    15    47 1   
    34    15    48 1   
    35    16    28 1   
    36    16    33 2   
    37    17    18 ar  
    38    17    21 ar  
    39    17    28 1   
    40    18    19 ar  
    41    18    49 1   
    42    19    29 ar  
    43    19    50 1   
    44    20    21 ar  
    45    20    29 ar  
    46    20    51 1   
    47    21    35 1   
    48    23    24 1   
    49    23    55 1   
    50    26    34 1   
    51    26    52 1   
    52    26    53 1   
    53    28    54 1   
    54    31    34 2   
    55    32    34 2   
    56    39    55 1   
    57    40    55 1   
    58    41    55 1   
@<TRIPOS>SUBSTRUCTURE
     1 828         1 TEMP              0 ****  ****    0 ROOT
