@<TRIPOS>MOLECULE
829
   42    44     1     0     0
SMALL
No Charge or Current Charge


@<TRIPOS>ATOM
      1 N1          -2.7400     0.5510     0.3330 n          1 829      -0.322000
      2 C2          -2.7630     0.7390    -1.0680 c          1 829       0.727400
      3 O2          -2.1250     0.0530    -1.8480 o          1 829      -0.568000
      4 N3          -3.5740     1.7190    -1.5760 nc         1 829      -0.770100
      5 C4          -4.3040     2.4340    -0.7910 cd         1 829       0.788500
      6 N4          -5.0390     3.3490    -1.3880 nv         1 829      -1.034200
      7 C5          -4.3480     2.2900     0.6090 cd         1 829      -0.480600
      8 C6          -3.5460     1.3230     1.1660 cc         1 829       0.031600
      9 C07          2.7220    -0.0910    -0.6330 c          1 829       0.615700
     10 C08          4.6470    -0.0210     1.0840 ca         1 829      -0.130500
     11 C09          5.7610     0.6480     1.6230 ca         1 829       0.327400
     12 C1          -1.8270    -0.4460     0.9580 c5         1 829       0.329700
     13 N10          6.2020     1.8420     1.1630 nb         1 829      -0.655000
     14 C11          5.5270     2.4040     0.1360 ca         1 829       0.327400
     15 C12          4.4040     1.8070    -0.4630 ca         1 829      -0.130500
     16 C13          3.9330     0.5600     0.0070 ca         1 829      -0.110600
     17 O15          2.1260     0.4290    -1.5660 o          1 829      -0.572100
     18 C7          -2.4640    -1.8820     0.7960 c5         1 829       0.114300
     19 O5          -2.5630    -2.6030     2.0320 oh         1 829      -0.725000
     20 C3          -1.3930    -2.6010    -0.0860 c5         1 829       0.099300
     21 O3          -1.3800    -4.0210     0.1880 oh         1 829      -0.722000
     22 C8          -0.0980    -1.8580     0.3700 c5         1 829       0.154300
     23 O4          -0.5120    -0.4800     0.3650 os         1 829      -0.434000
     24 C9           1.1400    -2.0640    -0.5390 c3         1 829       0.097000
     25 N5           2.3340    -1.3100    -0.1160 ns         1 829      -0.497900
     26 HN4         -4.7410     3.5420    -2.3340 hn         1 829       0.501500
     27 HN4A        -5.2790     4.1570    -0.8300 hn         1 829       0.501500
     28 H5          -4.9890     2.9160     1.2170 ha         1 829       0.203000
     29 H6          -3.4640     1.0850     2.2240 h4         1 829       0.201000
     30 H09          6.3190     0.2130     2.4510 h4         1 829       0.021600
     31 H1          -1.7400    -0.1900     2.0210 h2         1 829       0.075700
     32 H11          5.8970     3.3650    -0.2190 h4         1 829       0.021600
     33 H12          3.9100     2.3170    -1.2850 ha         1 829       0.133500
     34 H2          -3.4370    -1.8470     0.2860 h1         1 829       0.081700
     35 HO2         -2.1870    -3.4880     1.7740 ho         1 829       0.528000
     36 H3          -1.5880    -2.4070    -1.1510 h1         1 829       0.093700
     37 HO3         -1.0390    -4.4820    -0.6170 ho         1 829       0.519000
     38 H4           0.1730    -2.1390     1.3980 h1         1 829       0.059700
     39 H7           1.3950    -3.1320    -0.5450 h1         1 829       0.077200
     40 H5'A         0.8760    -1.7870    -1.5680 h1         1 829       0.077200
     41 HN5          2.8860    -1.6780     0.6480 hn         1 829       0.313500
     42 H08          4.3640    -0.9760     1.5160 ha         1 829       0.133500
@<TRIPOS>BOND
     1     1     2 1   
     2     1     8 1   
     3     1    12 1   
     4     2     3 2   
     5     2     4 1   
     6     4     5 2   
     7     5     6 1   
     8     5     7 1   
     9     6    26 1   
    10     6    27 1   
    11     7     8 2   
    12     7    28 1   
    13     8    29 1   
    14     9    16 1   
    15     9    17 2   
    16     9    25 1   
    17    10    11 ar  
    18    10    16 ar  
    19    10    42 1   
    20    11    13 ar  
    21    11    30 1   
    22    12    18 1   
    23    12    23 1   
    24    12    31 1   
    25    13    14 ar  
    26    14    15 ar  
    27    14    32 1   
    28    15    16 ar  
    29    15    33 1   
    30    18    19 1   
    31    18    20 1   
    32    18    34 1   
    33    19    35 1   
    34    20    21 1   
    35    20    22 1   
    36    20    36 1   
    37    21    37 1   
    38    22    23 1   
    39    22    24 1   
    40    22    38 1   
    41    24    25 1   
    42    24    39 1   
    43    24    40 1   
    44    25    41 1   
@<TRIPOS>SUBSTRUCTURE
     1 829         1 TEMP              0 ****  ****    0 ROOT
