@<TRIPOS>MOLECULE
829
   42    44     1     0     0
SMALL
bcc


@<TRIPOS>ATOM
      1 N1          -2.5770     0.3330     0.4200 n          1 829      -0.389000
      2 C2          -2.6360     0.4180    -0.9810 c          1 829       0.869900
      3 O2          -2.2070    -0.5090    -1.6520 o          1 829      -0.643500
      4 N3          -3.1770     1.5220    -1.5330 nc         1 829      -0.770100
      5 C4          -3.6530     2.4970    -0.7830 cd         1 829       0.788500
      6 N4          -4.1770     3.5610    -1.3880 nv         1 829      -0.923800
      7 C5          -3.6190     2.4420     0.6450 cd         1 829      -0.430600
      8 C6          -3.0600     1.3430     1.1850 cc         1 829       0.081600
      9 C07          2.3240     0.1990    -0.5690 c          1 829       0.682700
     10 C08          4.0850     0.3560     1.2610 ca         1 829      -0.213800
     11 C09          5.2170     0.9850     1.7590 ca         1 829       0.392700
     12 C1          -1.9190    -0.7890     1.0720 c5         1 829       0.306500
     13 N10          5.8380     1.9770     1.1340 nb         1 829      -0.655000
     14 C11          5.3300     2.3890    -0.0220 ca         1 829       0.392700
     15 C12          4.1960     1.8390    -0.5980 ca         1 829      -0.213800
     16 C13          3.5610     0.7860     0.0480 ca         1 829      -0.110600
     17 O15          1.6020     0.8870    -1.2720 o          1 829      -0.572100
     18 C7          -2.4410    -2.1940     0.7250 c5         1 829       0.091100
     19 O5          -2.6340    -2.8850     1.9340 oh         1 829      -0.602800
     20 C3          -1.2870    -2.8290    -0.0740 c5         1 829       0.076100
     21 O3          -1.0910    -4.1860     0.2440 oh         1 829      -0.599800
     22 C8          -0.0690    -2.0180     0.3700 c5         1 829       0.131100
     23 O4          -0.5490    -0.7580     0.7920 os         1 829      -0.387600
     24 C9           0.9470    -1.8300    -0.7410 c3         1 829       0.097000
     25 N5           2.1150    -1.1000    -0.3090 ns         1 829      -0.564900
     26 HN4         -4.1980     3.6140    -2.3920 hn         1 829       0.446300
     27 HN4A        -4.5540     4.3320    -0.8660 hn         1 829       0.446300
     28 H5          -4.0060     3.2370     1.2630 ha         1 829       0.153000
     29 H6          -2.9760     1.2160     2.2560 h4         1 829       0.151000
     30 H09          5.6340     0.6700     2.7080 h4         1 829       0.021600
     31 H1          -2.0890    -0.6290     2.1410 h2         1 829       0.075700
     32 H11          5.8490     3.1990    -0.5200 h4         1 829       0.021600
     33 H12          3.8260     2.2230    -1.5390 ha         1 829       0.151500
     34 H2          -3.3710    -2.1550     0.1480 h1         1 829       0.081700
     35 HO2         -2.2970    -3.7810     1.7970 ho         1 829       0.429000
     36 H3          -1.4640    -2.7000    -1.1410 h1         1 829       0.093700
     37 HO3         -1.5900    -4.7250    -0.3780 ho         1 829       0.420000
     38 H4           0.4100    -2.5320     1.2170 h1         1 829       0.059700
     39 H7           1.2620    -2.8130    -1.0960 h1         1 829       0.077200
     40 H5'A         0.4850    -1.3020    -1.5740 h1         1 829       0.077200
     41 HN5          2.8080    -1.6110     0.2120 hn         1 829       0.313500
     42 H08          3.6270    -0.4350     1.8400 ha         1 829       0.151500
@<TRIPOS>BOND
     1     1     2 1   
     2     1     8 1   
     3     1    12 1   
     4     2     3 2   
     5     2     4 1   
     6     4     5 2   
     7     5     6 1   
     8     5     7 1   
     9     6    26 1   
    10     6    27 1   
    11     7     8 2   
    12     7    28 1   
    13     8    29 1   
    14     9    16 1   
    15     9    17 2   
    16     9    25 1   
    17    10    11 ar  
    18    10    16 ar  
    19    10    42 1   
    20    11    13 ar  
    21    11    30 1   
    22    12    18 1   
    23    12    23 1   
    24    12    31 1   
    25    13    14 ar  
    26    14    15 ar  
    27    14    32 1   
    28    15    16 ar  
    29    15    33 1   
    30    18    19 1   
    31    18    20 1   
    32    18    34 1   
    33    19    35 1   
    34    20    21 1   
    35    20    22 1   
    36    20    36 1   
    37    21    37 1   
    38    22    23 1   
    39    22    24 1   
    40    22    38 1   
    41    24    25 1   
    42    24    39 1   
    43    24    40 1   
    44    25    41 1   
@<TRIPOS>SUBSTRUCTURE
     1 829         1 TEMP              0 ****  ****    0 ROOT
