@<TRIPOS>MOLECULE
82A
   48    51     1     0     0
SMALL
abcg2


@<TRIPOS>ATOM
      1 C11          5.7160    -1.7200     2.7710 cc         1 82A      -0.147000
      2 C14          5.2030    -2.1210     0.3090 cd         1 82A       0.363500
      3 N16          4.4010    -2.1620    -1.6410 na         1 82A       0.001800
      4 C18          3.8160    -3.1970    -1.0280 cc         1 82A      -0.155000
      5 C19          4.3120    -3.2250     0.2590 cd         1 82A      -0.162000
      6 C20          3.9900    -4.2200     1.2850 ca         1 82A       0.019000
      7 C21          4.9930    -4.8410     2.0320 ca         1 82A      -0.101000
      8 C22          4.6720    -5.7970     2.9820 ca         1 82A      -0.105000
      9 C23          3.3520    -6.1650     3.2030 ca         1 82A      -0.108000
     10 C24          2.3620    -5.5520     2.4520 ca         1 82A       0.119000
     11 C26          2.6630    -4.5860     1.5060 ca         1 82A      -0.105000
     12 C27         11.9120     0.2870     3.1200 ca         1 82A      -0.105300
     13 C29         13.7300    -0.1950     4.6360 ca         1 82A      -0.145000
     14 C30         13.8760    -1.4340     4.0470 ca         1 82A       0.184000
     15 C2          11.4580     1.9710     1.3680 c3         1 82A       0.145600
     16 C3          10.8810     1.2570     2.5840 c3         1 82A       0.170000
     17 N5           9.6520     0.5970     2.2120 ns         1 82A      -0.492900
     18 O7           9.0890     0.0380     4.3270 o          1 82A      -0.619100
     19 C8           7.6480    -0.6350     2.5970 cc         1 82A      -0.262600
     20 C9           7.2320    -0.9330     1.3170 cd         1 82A      -0.105000
     21 C10          6.0050    -1.6280     1.4210 cd         1 82A      -0.211500
     22 N12          6.7110    -1.1250     3.4560 na         1 82A      -0.062000
     23 N15          5.2370    -1.4950    -0.8570 nc         1 82A      -0.522800
     24 CL25         0.7040    -5.9930     2.7070 cl         1 82A      -0.208000
     25 C28         12.7440     0.6600     4.1680 ca         1 82A      -0.064000
     26 C32         13.0550    -1.8240     3.0020 ca         1 82A       0.066000
     27 CL33        13.2660    -3.3840     2.2980 cl         1 82A      -0.173000
     28 C34         12.0750    -0.9630     2.5370 ca         1 82A      -0.062000
     29 H11          4.8720    -2.1540     3.2790 h4         1 82A       0.159000
     30 HN16         4.2670    -1.8690    -2.5960 hn         1 82A       0.374000
     31 H18          3.1210    -3.8470    -1.5350 h4         1 82A       0.158000
     32 H21          6.0290    -4.5820     1.8600 ha         1 82A       0.128000
     33 H22          5.4570    -6.2710     3.5560 ha         1 82A       0.119000
     34 H23          3.1040    -6.9130     3.9440 ha         1 82A       0.129000
     35 H26          1.8690    -4.1090     0.9460 ha         1 82A       0.128000
     36 H29         14.3750     0.0920     5.4560 ha         1 82A       0.137000
     37 HO1         10.8240     3.2560     0.0660 ho         1 82A       0.450000
     38 H21A        12.4010     2.4420     1.6690 h1         1 82A       0.033200
     39 H22A        11.6980     1.2250     0.5990 h1         1 82A       0.033200
     40 H3          10.6830     2.0040     3.3610 h1         1 82A       0.080700
     41 HN5          9.3350     0.6800     1.2600 hn         1 82A       0.332500
     42 H9           7.7500    -0.7110     0.3970 ha         1 82A       0.138000
     43 HN12         6.7600    -1.0470     4.4600 hn         1 82A       0.369000
     44 H28         12.6220     1.6310     4.6320 ha         1 82A       0.124000
     45 H34         11.4360    -1.2800     1.7220 ha         1 82A       0.134000
     46 C6           8.8450     0.0260     3.1260 c          1 82A       0.642700
     47 F31         14.8130    -2.2770     4.4890 f          1 82A      -0.161000
     48 O1          10.5170     2.9100     0.9080 oh         1 82A      -0.660000
@<TRIPOS>BOND
     1     1    21 2   
     2     1    22 1   
     3     1    29 1   
     4     2     5 1   
     5     2    21 1   
     6     2    23 2   
     7     3     4 1   
     8     3    23 1   
     9     3    30 1   
    10     4     5 2   
    11     4    31 1   
    12     5     6 1   
    13     6     7 ar  
    14     6    11 ar  
    15     7     8 ar  
    16     7    32 1   
    17     8     9 ar  
    18     8    33 1   
    19     9    10 ar  
    20     9    34 1   
    21    10    11 ar  
    22    10    24 1   
    23    11    35 1   
    24    12    16 1   
    25    12    25 ar  
    26    12    28 ar  
    27    13    14 ar  
    28    13    25 ar  
    29    13    36 1   
    30    14    26 ar  
    31    14    47 1   
    32    15    16 1   
    33    15    38 1   
    34    15    39 1   
    35    15    48 1   
    36    16    17 1   
    37    16    40 1   
    38    17    41 1   
    39    17    46 1   
    40    18    46 2   
    41    19    20 2   
    42    19    22 1   
    43    19    46 1   
    44    20    21 1   
    45    20    42 1   
    46    22    43 1   
    47    25    44 1   
    48    26    27 1   
    49    26    28 ar  
    50    28    45 1   
    51    37    48 1   
@<TRIPOS>SUBSTRUCTURE
     1 82A         1 TEMP              0 ****  ****    0 ROOT
