@<TRIPOS>MOLECULE
82A
   48    51     1     0     0
SMALL
No Charge or Current Charge


@<TRIPOS>ATOM
      1 C11          5.8340    -2.1610     2.8850 cc         1 82A      -0.147000
      2 C14          5.5540    -2.4080     0.4010 cd         1 82A       0.363500
      3 N16          4.8940    -2.3770    -1.6120 na         1 82A       0.001800
      4 C18          3.9850    -3.2150    -0.9750 cc         1 82A      -0.155000
      5 C19          4.4610    -3.3320     0.3050 cd         1 82A      -0.162000
      6 C20          3.8300    -4.1940     1.3240 ca         1 82A       0.019000
      7 C21          4.6080    -4.8700     2.2880 ca         1 82A      -0.101000
      8 C22          4.0070    -5.7340     3.2210 ca         1 82A      -0.105000
      9 C23          2.6210    -5.9510     3.1840 ca         1 82A      -0.108000
     10 C24          1.8430    -5.3160     2.2040 ca         1 82A       0.119000
     11 C26          2.4440    -4.4550     1.2710 ca         1 82A      -0.105000
     12 C27         12.0790     0.4070     2.9930 ca         1 82A      -0.105300
     13 C29         13.8080    -0.0950     4.6450 ca         1 82A      -0.145000
     14 C30         14.2780    -1.1430     3.8380 ca         1 82A       0.184000
     15 C2          11.2140     2.0800     1.2730 c3         1 82A       0.145600
     16 C3          10.8840     1.2480     2.5430 c3         1 82A       0.170000
     17 N5           9.7010     0.4050     2.3490 ns         1 82A      -0.492900
     18 O7           9.1650     0.1080     4.5410 o          1 82A      -0.619100
     19 C8           7.7580    -0.8890     2.9030 cc         1 82A      -0.262600
     20 C9           7.4130    -1.1570     1.5990 cd         1 82A      -0.105000
     21 C10          6.2510    -1.9610     1.5930 cd         1 82A      -0.211500
     22 N12          6.7800    -1.5170     3.6870 na         1 82A      -0.062000
     23 N15          5.8680    -1.8800    -0.7700 nc         1 82A      -0.522800
     24 Cl25         0.1090    -5.6040     2.1390 cl         1 82A      -0.208000
     25 C28         12.7100     0.6780     4.2250 ca         1 82A      -0.064000
     26 C32         13.6530    -1.4240     2.6090 ca         1 82A       0.066000
     27 Cl33        14.2270    -2.7400     1.5840 cl         1 82A      -0.173000
     28 C34         12.5570    -0.6510     2.1890 ca         1 82A      -0.062000
     29 H11          4.9590    -2.6380     3.3060 h4         1 82A       0.159000
     30 HN16         4.8730    -2.1210    -2.5990 hn         1 82A       0.374000
     31 H18          3.1580    -3.6910    -1.4890 h4         1 82A       0.158000
     32 H21          5.6880    -4.7470     2.3000 ha         1 82A       0.128000
     33 H22          4.6190    -6.2430     3.9630 ha         1 82A       0.119000
     34 H23          2.1520    -6.6190     3.9020 ha         1 82A       0.129000
     35 H26          1.8240    -3.9740     0.5200 ha         1 82A       0.128000
     36 H29         14.2930     0.1160     5.5940 ha         1 82A       0.137000
     37 HO1         10.3590     3.3680     0.0560 ho         1 82A       0.450000
     38 H21A        12.0590     2.7450     1.4970 h1         1 82A       0.033200
     39 H22A        11.5340     1.4010     0.4710 h1         1 82A       0.033200
     40 H3          10.6470     1.9670     3.3400 h1         1 82A       0.080700
     41 HN5          9.3840     0.2330     1.4060 hn         1 82A       0.332500
     42 H9           7.9400    -0.8210     0.7110 ha         1 82A       0.138000
     43 HN12         6.7520    -1.4860     4.7030 hn         1 82A       0.369000
     44 H28         12.3510     1.4860     4.8590 ha         1 82A       0.124000
     45 H34         12.0770    -0.8790     1.2400 ha         1 82A       0.134000
     46 C6           8.9200    -0.0920     3.3600 c          1 82A       0.642700
     47 F31         15.3340    -1.8800     4.2540 f          1 82A      -0.161000
     48 O1          10.0760     2.8470     0.8410 oh         1 82A      -0.660000
@<TRIPOS>BOND
     1     1    21 2   
     2     1    22 1   
     3     1    29 1   
     4     2     5 1   
     5     2    21 1   
     6     2    23 2   
     7     3     4 1   
     8     3    23 1   
     9     3    30 1   
    10     4     5 2   
    11     4    31 1   
    12     5     6 1   
    13     6     7 ar  
    14     6    11 ar  
    15     7     8 ar  
    16     7    32 1   
    17     8     9 ar  
    18     8    33 1   
    19     9    10 ar  
    20     9    34 1   
    21    10    11 ar  
    22    10    24 1   
    23    11    35 1   
    24    12    16 1   
    25    12    25 ar  
    26    12    28 ar  
    27    13    14 ar  
    28    13    25 ar  
    29    13    36 1   
    30    14    26 ar  
    31    14    47 1   
    32    15    16 1   
    33    15    38 1   
    34    15    39 1   
    35    15    48 1   
    36    16    17 1   
    37    16    40 1   
    38    17    41 1   
    39    17    46 1   
    40    18    46 2   
    41    19    20 2   
    42    19    22 1   
    43    19    46 1   
    44    20    21 1   
    45    20    42 1   
    46    22    43 1   
    47    25    44 1   
    48    26    27 1   
    49    26    28 ar  
    50    28    45 1   
    51    37    48 1   
@<TRIPOS>SUBSTRUCTURE
     1 82A         1 TEMP              0 ****  ****    0 ROOT
