@<TRIPOS>MOLECULE
82B
   66    71     1     0     0
SMALL
No Charge or Current Charge


@<TRIPOS>ATOM
      1 O22         -4.7570    -1.9070    -0.1030 o          1 82B      -0.642100
      2 C20         -3.6780    -1.3370    -0.0600 c          1 82B       0.652100
      3 N21         -3.5870     0.0160     0.1440 ns         1 82B      -0.507900
      4 C24         -4.7140     0.9470     0.1800 c3         1 82B       0.168000
      5 C25         -5.5490     0.7890     1.4520 ca         1 82B      -0.080300
      6 C30         -6.9370     0.5620     1.3620 ca         1 82B      -0.091500
      7 C29         -7.7110     0.4210     2.5280 ca         1 82B      -0.113000
      8 C28         -7.1030     0.5050     3.7910 ca         1 82B      -0.108000
      9 C27         -5.7200     0.7290     3.8890 ca         1 82B      -0.113000
     10 C26         -4.9460     0.8710     2.7250 ca         1 82B      -0.091500
     11 C23         -4.1990     2.4050     0.0080 c3         1 82B       0.154800
     12 N31         -3.1380     2.5720    -1.0230 n3         1 82B      -0.748600
     13 C36         -2.5830     3.9350    -1.1400 c5         1 82B       0.160300
     14 C35         -1.5990     3.7660    -2.3280 c5         1 82B      -0.081400
     15 C34         -2.2310     2.6190    -3.1810 c5         1 82B      -0.081400
     16 C33         -3.5280     2.2580    -2.4130 c5         1 82B       0.160300
     17 N8          -2.4450    -2.0030    -0.2220 n          1 82B      -0.405800
     18 C4          -2.2510    -3.4510    -0.4430 cx         1 82B       0.043100
     19 C19         -3.0540    -4.5450     0.2250 cx         1 82B      -0.113900
     20 C18         -3.1540    -4.3370    -1.2720 cx         1 82B      -0.113900
     21 C7          -1.1590    -1.2630    -0.2060 c5         1 82B       0.213300
     22 C6          -0.1710    -2.3630    -0.4340 cc         1 82B      -0.292300
     23 C5          -0.7840    -3.5910    -0.5660 cc         1 82B       0.287300
     24 N1           0.0590    -4.5870    -0.7720 nd         1 82B      -0.483800
     25 C3           1.1600    -2.5240    -0.5600 cd         1 82B       0.038600
     26 N2           1.3000    -3.9100    -0.7670 na         1 82B      -0.016200
     27 N9           2.1220    -1.5380    -0.5000 ns         1 82B      -0.384100
     28 C10          3.4850    -1.6910    -0.6300 c          1 82B       0.658700
     29 O12          4.0020    -2.7860    -0.8160 o          1 82B      -0.612100
     30 C11          4.2590    -0.4260    -0.5260 cc         1 82B      -0.258600
     31 N16          5.6460    -0.2300    -0.6110 na         1 82B       0.081000
     32 C32          6.6480    -1.2840    -0.8270 c3         1 82B       0.053900
     33 C15          5.9550     1.1240    -0.4610 cc         1 82B      -0.134000
     34 C14          4.7650     1.7710    -0.2830 cd         1 82B      -0.113900
     35 Br           4.5400     3.6240    -0.0270 br         1 82B      -0.057100
     36 C13          3.7240     0.8270    -0.3220 cd         1 82B      -0.099000
     37 H21         -2.6680     0.4290     0.0850 hn         1 82B       0.329500
     38 H24         -5.3470     0.7180    -0.6870 h1         1 82B       0.053700
     39 H231        -5.0580     3.0520    -0.2180 h1         1 82B       0.045700
     40 H232        -3.8000     2.7380     0.9760 h1         1 82B       0.045700
     41 H30         -7.4180     0.4940     0.3890 ha         1 82B       0.113000
     42 H26         -3.8750     1.0430     2.8120 ha         1 82B       0.113000
     43 H29         -8.7820     0.2460     2.4500 ha         1 82B       0.109500
     44 H28         -7.7030     0.3950     4.6930 ha         1 82B       0.110000
     45 H27         -5.2480     0.7940     4.8670 ha         1 82B       0.109500
     46 H361        -3.3680     4.6670    -1.3760 h1         1 82B       0.039450
     47 H362        -2.0730     4.2640    -0.2240 h1         1 82B       0.039450
     48 H331        -3.8050     1.2030    -2.5510 h1         1 82B       0.039450
     49 H332        -4.3730     2.8800    -2.7420 h1         1 82B       0.039450
     50 H351        -1.4860     4.6970    -2.8940 hc         1 82B       0.047950
     51 H352        -0.6020     3.4810    -1.9730 hc         1 82B       0.047950
     52 H341        -2.4410     2.9280    -4.2100 hc         1 82B       0.047950
     53 H342        -1.5560     1.7570    -3.2330 hc         1 82B       0.047950
     54 H71C        -1.1070    -0.5160    -1.0100 h1         1 82B       0.045200
     55 H72C        -0.9820    -0.7720     0.7610 h1         1 82B       0.045200
     56 H191        -2.5180    -5.4210     0.5810 hc         1 82B       0.087700
     57 H192        -3.9040    -4.2570     0.8370 hc         1 82B       0.087700
     58 H181        -4.0720    -3.9120    -1.6680 hc         1 82B       0.087700
     59 H182        -2.6850    -5.0760    -1.9180 hc         1 82B       0.087700
     60 H2           2.1840    -4.3980    -0.9050 hn         1 82B       0.400000
     61 H9           1.8300    -0.5840    -0.3470 hn         1 82B       0.345500
     62 H13          2.6730     1.0780    -0.2060 ha         1 82B       0.144000
     63 H321         6.4520    -1.7850    -1.7830 h1         1 82B       0.066033
     64 H322         7.6530    -0.8470    -0.8490 h1         1 82B       0.066033
     65 H323         6.5910    -2.0160    -0.0130 h1         1 82B       0.066033
     66 H15          6.9690     1.5020    -0.4930 h4         1 82B       0.165000
@<TRIPOS>BOND
     1     1     2 2   
     2     2     3 1   
     3     2    17 1   
     4     3     4 1   
     5     3    37 1   
     6     4     5 1   
     7     4    11 1   
     8     4    38 1   
     9     5     6 ar  
    10     5    10 ar  
    11     6     7 ar  
    12     6    41 1   
    13     7     8 ar  
    14     7    43 1   
    15     8     9 ar  
    16     8    44 1   
    17     9    10 ar  
    18     9    45 1   
    19    10    42 1   
    20    11    12 1   
    21    11    39 1   
    22    11    40 1   
    23    12    13 1   
    24    12    16 1   
    25    13    14 1   
    26    13    46 1   
    27    13    47 1   
    28    14    15 1   
    29    14    50 1   
    30    14    51 1   
    31    15    16 1   
    32    15    52 1   
    33    15    53 1   
    34    16    48 1   
    35    16    49 1   
    36    17    18 1   
    37    17    21 1   
    38    18    19 1   
    39    18    20 1   
    40    18    23 1   
    41    19    20 1   
    42    19    56 1   
    43    19    57 1   
    44    20    58 1   
    45    20    59 1   
    46    21    22 1   
    47    21    54 1   
    48    21    55 1   
    49    22    23 1   
    50    22    25 2   
    51    23    24 2   
    52    24    26 1   
    53    25    26 1   
    54    25    27 1   
    55    26    60 1   
    56    27    28 1   
    57    27    61 1   
    58    28    29 2   
    59    28    30 1   
    60    30    31 1   
    61    30    36 2   
    62    31    32 1   
    63    31    33 1   
    64    32    63 1   
    65    32    64 1   
    66    32    65 1   
    67    33    34 2   
    68    33    66 1   
    69    34    35 1   
    70    34    36 1   
    71    36    62 1   
@<TRIPOS>SUBSTRUCTURE
     1 82B         1 TEMP              0 ****  ****    0 ROOT
