@<TRIPOS>MOLECULE
82B
   66    71     1     0     0
SMALL
bcc


@<TRIPOS>ATOM
      1 O22         -4.5720    -1.8840    -0.0280 o          1 82B      -0.642100
      2 C20         -3.5390    -1.2230    -0.0800 c          1 82B       0.786100
      3 N21         -3.5510     0.1330     0.0520 ns         1 82B      -0.574900
      4 C24         -4.8040     0.8480     0.0890 c3         1 82B       0.168000
      5 C25         -5.5960     0.5960     1.3500 ca         1 82B      -0.080300
      6 C30         -6.9850     0.6200     1.3050 ca         1 82B      -0.109500
      7 C29         -7.7370     0.4610     2.4620 ca         1 82B      -0.131000
      8 C28         -7.1030     0.2720     3.6820 ca         1 82B      -0.126000
      9 C27         -5.7150     0.2480     3.7350 ca         1 82B      -0.131000
     10 C26         -4.9670     0.4130     2.5780 ca         1 82B      -0.109500
     11 C23         -4.4760     2.3450    -0.0030 c3         1 82B       0.154800
     12 N31         -3.5260     2.6250    -1.0490 n3         1 82B      -0.748600
     13 C36         -3.0110     3.9850    -1.0350 c5         1 82B       0.160300
     14 C35         -2.3080     4.1400    -2.3900 c5         1 82B      -0.081400
     15 C34         -2.8560     2.9810    -3.2480 c5         1 82B      -0.081400
     16 C33         -3.9900     2.4040    -2.4070 c5         1 82B       0.160300
     17 N8          -2.3110    -1.7850    -0.2390 n          1 82B      -0.472800
     18 C4          -2.0920    -3.2220    -0.3650 cx         1 82B       0.043100
     19 C19         -2.8610    -4.2940     0.3430 cx         1 82B      -0.113900
     20 C18         -2.9420    -4.1680    -1.1550 cx         1 82B      -0.113900
     21 C7          -1.0740    -0.9830    -0.2460 c5         1 82B       0.213300
     22 C6          -0.0450    -2.0430    -0.3690 cc         1 82B      -0.357600
     23 C5          -0.6260    -3.3000    -0.4440 cc         1 82B       0.352600
     24 N1           0.2420    -4.2740    -0.5680 nd         1 82B      -0.483800
     25 C3           1.3050    -2.2900    -0.4570 cd         1 82B       0.089300
     26 N2           1.4240    -3.6320    -0.5710 na         1 82B      -0.016600
     27 N9           2.3560    -1.3960    -0.4360 ns         1 82B      -0.451100
     28 C10          3.6730    -1.7140    -0.5830 c          1 82B       0.725700
     29 O12          4.0510    -2.8710    -0.6850 o          1 82B      -0.612100
     30 C11          4.5750    -0.5640    -0.6180 cc         1 82B      -0.207900
     31 N16          5.9350    -0.6790    -0.4830 na         1 82B       0.008900
     32 C32          6.7110    -1.8810    -0.2300 c3         1 82B       0.024600
     33 C15          6.4950     0.5440    -0.5880 cc         1 82B      -0.101300
     34 C14          5.4900     1.4610    -0.8040 cd         1 82B      -0.113900
     35 BR           5.7320     3.2940    -1.0380 br         1 82B      -0.057100
     36 C13          4.2730     0.7720    -0.8240 cd         1 82B      -0.117000
     37 H21         -2.7910     0.6920    -0.3160 hn         1 82B       0.329500
     38 H24         -5.4340     0.5700    -0.7650 h1         1 82B       0.053700
     39 H231        -5.4200     2.9000    -0.1220 h1         1 82B       0.045700
     40 H232        -4.0370     2.6660     0.9470 h1         1 82B       0.045700
     41 H30         -7.4870     0.7610     0.3540 ha         1 82B       0.131000
     42 H26         -3.8850     0.3930     2.6280 ha         1 82B       0.131000
     43 H29         -8.8180     0.4780     2.4080 ha         1 82B       0.127500
     44 H28         -7.6860     0.1410     4.5850 ha         1 82B       0.128000
     45 H27         -5.2120     0.0980     4.6820 ha         1 82B       0.127500
     46 H361        -3.8260     4.7190    -0.9450 h1         1 82B       0.039450
     47 H362        -2.3440     4.1350    -0.1830 h1         1 82B       0.039450
     48 H331        -4.1640     1.3440    -2.6030 h1         1 82B       0.039450
     49 H332        -4.9340     2.9360    -2.6090 h1         1 82B       0.039450
     50 H351        -2.5290     5.1120    -2.8290 hc         1 82B       0.047950
     51 H352        -1.2250     4.0730    -2.2870 hc         1 82B       0.047950
     52 H341        -3.2010     3.3050    -4.2290 hc         1 82B       0.047950
     53 H342        -2.0870     2.2230    -3.4040 hc         1 82B       0.047950
     54 H71C        -1.0550    -0.2860    -1.0920 h1         1 82B       0.045200
     55 H72C        -0.9840    -0.3940     0.6720 h1         1 82B       0.045200
     56 H191        -2.2810    -5.1060     0.7650 hc         1 82B       0.087700
     57 H192        -3.7370    -4.0180     0.9110 hc         1 82B       0.087700
     58 H181        -3.8700    -3.8060    -1.5730 hc         1 82B       0.087700
     59 H182        -2.4230    -4.8950    -1.7680 hc         1 82B       0.087700
     60 H2           2.2860    -4.1470    -0.6590 hn         1 82B       0.349700
     61 H9           2.0970    -0.4360    -0.2700 hn         1 82B       0.345500
     62 H13          3.3000     1.2030    -0.9980 ha         1 82B       0.162000
     63 H321         6.6490    -2.5690    -1.0670 h1         1 82B       0.066033
     64 H322         7.7460    -1.5860    -0.0910 h1         1 82B       0.066033
     65 H323         6.3670    -2.3810     0.6720 h1         1 82B       0.066033
     66 H15          7.5600     0.6850    -0.5020 h4         1 82B       0.183000
@<TRIPOS>BOND
     1     1     2 2   
     2     2     3 1   
     3     2    17 1   
     4     3     4 1   
     5     3    37 1   
     6     4     5 1   
     7     4    11 1   
     8     4    38 1   
     9     5     6 ar  
    10     5    10 ar  
    11     6     7 ar  
    12     6    41 1   
    13     7     8 ar  
    14     7    43 1   
    15     8     9 ar  
    16     8    44 1   
    17     9    10 ar  
    18     9    45 1   
    19    10    42 1   
    20    11    12 1   
    21    11    39 1   
    22    11    40 1   
    23    12    13 1   
    24    12    16 1   
    25    13    14 1   
    26    13    46 1   
    27    13    47 1   
    28    14    15 1   
    29    14    50 1   
    30    14    51 1   
    31    15    16 1   
    32    15    52 1   
    33    15    53 1   
    34    16    48 1   
    35    16    49 1   
    36    17    18 1   
    37    17    21 1   
    38    18    19 1   
    39    18    20 1   
    40    18    23 1   
    41    19    20 1   
    42    19    56 1   
    43    19    57 1   
    44    20    58 1   
    45    20    59 1   
    46    21    22 1   
    47    21    54 1   
    48    21    55 1   
    49    22    23 1   
    50    22    25 2   
    51    23    24 2   
    52    24    26 1   
    53    25    26 1   
    54    25    27 1   
    55    26    60 1   
    56    27    28 1   
    57    27    61 1   
    58    28    29 2   
    59    28    30 1   
    60    30    31 1   
    61    30    36 2   
    62    31    32 1   
    63    31    33 1   
    64    32    63 1   
    65    32    64 1   
    66    32    65 1   
    67    33    34 2   
    68    33    66 1   
    69    34    35 1   
    70    34    36 1   
    71    36    62 1   
@<TRIPOS>SUBSTRUCTURE
     1 82B         1 TEMP              0 ****  ****    0 ROOT
