@<TRIPOS>MOLECULE
82D
   52    55     1     0     0
SMALL
No Charge or Current Charge


@<TRIPOS>ATOM
      1 C4           3.9920    -0.2230    -0.3570 ca         1 82D      -0.090800
      2 C5           4.9710     0.5150    -1.0390 ca         1 82D      -0.067000
      3 C6           6.3080     0.0740    -0.9570 ca         1 82D      -0.141000
      4 C7           6.6350    -1.0810    -0.2090 ca         1 82D      -0.098000
      5 C8           5.6260    -1.8060     0.4600 ca         1 82D      -0.126000
      6 C10          2.5720    -0.0200    -0.2620 cc         1 82D      -0.145400
      7 C13          0.5110     0.4570    -1.6750 c5         1 82D       0.159800
      8 C17         -3.2350    -0.8070     0.6270 ca         1 82D       0.023100
      9 C20         -5.1780     0.3040     1.5940 ca         1 82D      -0.084000
     10 C21         -5.0370     1.3500     0.6680 ca         1 82D      -0.143000
     11 C22         -3.9990     1.3180    -0.2770 ca         1 82D       0.172000
     12 C24         -0.5040     1.9320    -0.2220 c5         1 82D       0.148800
     13 C19         -4.2760    -0.7720     1.5720 ca         1 82D      -0.107000
     14 C9           2.0820    -1.0610     0.5240 cd         1 82D      -0.136100
     15 C16         -3.0860     0.2400    -0.3130 ca         1 82D      -0.090300
     16 C3           4.3030    -1.3450     0.3630 ca         1 82D      -0.050200
     17 C11          1.6950     1.0710    -0.8550 c5         1 82D       0.018500
     18 C25          0.9740     1.8960     0.2820 c5         1 82D       0.170500
     19 N2           3.1560    -1.8860     0.9200 na         1 82D      -0.089700
     20 N14         -0.6450     0.5600    -0.7570 n3         1 82D      -0.711600
     21 N27          1.5340     3.2990     0.3470 n3         1 82D      -0.706600
     22 Br          -2.0330    -2.3070     0.6610 br         1 82D      -0.088100
     23 H1           4.7100     1.3990    -1.6160 ha         1 82D       0.112000
     24 H2           7.0910     0.6250    -1.4730 ha         1 82D       0.108000
     25 H3           7.6690    -1.4150    -0.1520 ha         1 82D       0.107000
     26 H4           5.8730    -2.6970     1.0330 ha         1 82D       0.111000
     27 H5           0.3360     1.0430    -2.5880 h1         1 82D       0.043200
     28 H6           0.7080    -0.5800    -1.9820 h1         1 82D       0.043200
     29 H9          -5.9820     0.3280     2.3270 ha         1 82D       0.122000
     30 H10         -5.7300     2.1870     0.6810 ha         1 82D       0.136000
     31 H11         -1.2080     2.1370     0.5960 h1         1 82D       0.046700
     32 H12         -0.6520     2.6880    -1.0070 h1         1 82D       0.046700
     33 H16         -4.3830    -1.5810     2.2910 ha         1 82D       0.133000
     34 H17          1.0590    -1.2650     0.8260 h4         1 82D       0.228000
     35 H18          2.2790     1.7140    -1.5220 hc         1 82D       0.070700
     36 H19          1.0340     1.3860     1.2540 h1         1 82D       0.039700
     37 C1           3.1240    -3.0990     1.7500 c3         1 82D       0.065900
     38 C15         -1.9580     0.2200    -1.3440 c3         1 82D       0.214100
     39 C29          0.7550     4.2310     1.2000 c3         1 82D       0.146100
     40 C28          2.9730     3.3570     0.7070 c3         1 82D       0.146100
     41 F23         -3.8860     2.3430    -1.1520 f          1 82D      -0.177000
     42 H7          -1.9160    -0.7820    -1.7930 h1         1 82D       0.052700
     43 H8          -2.1910     0.9090    -2.1670 h1         1 82D       0.052700
     44 H13          3.5910     2.7990    -0.0050 h1         1 82D       0.031367
     45 H14          3.3330     4.3950     0.7070 h1         1 82D       0.031367
     46 H15          3.1410     2.9370     1.7080 h1         1 82D       0.031367
     47 H20          3.5120    -3.9480     1.1740 h1         1 82D       0.047367
     48 H21          3.7430    -2.9500     2.6420 h1         1 82D       0.047367
     49 H22          2.0920    -3.3110     2.0560 h1         1 82D       0.047367
     50 H23          1.2020     5.2340     1.1890 h1         1 82D       0.031367
     51 H24         -0.2790     4.3310     0.8450 h1         1 82D       0.031367
     52 H25          0.7300     3.8790     2.2400 h1         1 82D       0.031367
@<TRIPOS>BOND
     1     1     2 ar  
     2     1     6 1   
     3     1    16 ar  
     4     2     3 ar  
     5     2    23 1   
     6     3     4 ar  
     7     3    24 1   
     8     4     5 ar  
     9     4    25 1   
    10     5    16 ar  
    11     5    26 1   
    12     6    14 2   
    13     6    17 1   
    14     7    17 1   
    15     7    20 1   
    16     7    27 1   
    17     7    28 1   
    18     8    13 ar  
    19     8    15 ar  
    20     8    22 1   
    21     9    10 ar  
    22     9    13 ar  
    23     9    29 1   
    24    10    11 ar  
    25    10    30 1   
    26    11    15 ar  
    27    11    41 1   
    28    12    18 1   
    29    12    20 1   
    30    12    31 1   
    31    12    32 1   
    32    13    33 1   
    33    14    19 1   
    34    14    34 1   
    35    15    38 1   
    36    16    19 1   
    37    17    18 1   
    38    17    35 1   
    39    18    21 1   
    40    18    36 1   
    41    19    37 1   
    42    20    38 1   
    43    21    39 1   
    44    21    40 1   
    45    37    47 1   
    46    37    48 1   
    47    37    49 1   
    48    38    42 1   
    49    38    43 1   
    50    39    50 1   
    51    39    51 1   
    52    39    52 1   
    53    40    44 1   
    54    40    45 1   
    55    40    46 1   
@<TRIPOS>SUBSTRUCTURE
     1 82D         1 TEMP              0 ****  ****    0 ROOT
