@<TRIPOS>MOLECULE
82D
   52    55     1     0     0
SMALL
bcc


@<TRIPOS>ATOM
      1 C4           3.9140    -0.2310    -0.3310 ca         1 82D      -0.090800
      2 C5           4.9480     0.4100    -1.0250 ca         1 82D      -0.085000
      3 C6           6.2260    -0.1100    -0.9590 ca         1 82D      -0.159000
      4 C7           6.4990    -1.2660    -0.2080 ca         1 82D      -0.116000
      5 C8           5.5010    -1.9220     0.4890 ca         1 82D      -0.144000
      6 C10          2.5130     0.0160    -0.1860 cc         1 82D      -0.145400
      7 C13          0.5510     0.5960    -1.6570 c5         1 82D       0.159800
      8 C17         -3.0680    -0.8860     0.5080 ca         1 82D       0.023100
      9 C20         -4.9760     0.0670     1.5930 ca         1 82D      -0.102000
     10 C21         -4.8780     1.1860     0.7830 ca         1 82D      -0.161000
     11 C22         -3.8640     1.2310    -0.1530 ca         1 82D       0.136900
     12 C24         -0.4700     1.9190    -0.1120 c5         1 82D       0.148800
     13 C19         -4.0730    -0.9770     1.4610 ca         1 82D      -0.125000
     14 C9           2.0410    -0.9770     0.6260 cd         1 82D      -0.086100
     15 C16         -2.9320     0.2170    -0.3370 ca         1 82D      -0.090300
     16 C3           4.2120    -1.3910     0.4220 ca         1 82D      -0.050200
     17 C11          1.7180     1.1190    -0.8080 c5         1 82D       0.018500
     18 C25          1.0170     2.0410     0.2380 c5         1 82D       0.170500
     19 N2           3.0540    -1.8210     1.0000 na         1 82D      -0.060400
     20 N14         -0.5640     0.6150    -0.7340 n3         1 82D      -0.711600
     21 N27          1.4930     3.4140     0.1980 n3         1 82D      -0.706600
     22 BR          -1.8720    -2.3410     0.3630 br         1 82D      -0.088100
     23 H1           4.7510     1.3000    -1.6100 ha         1 82D       0.130000
     24 H2           7.0310     0.3760    -1.4940 ha         1 82D       0.126000
     25 H3           7.5090    -1.6530    -0.1770 ha         1 82D       0.125000
     26 H4           5.7190    -2.8160     1.0590 ha         1 82D       0.129000
     27 H5           0.3760     1.2700    -2.5130 h1         1 82D       0.043200
     28 H6           0.7260    -0.4060    -2.0520 h1         1 82D       0.043200
     29 H9          -5.7610     0.0060     2.3350 ha         1 82D       0.140000
     30 H10         -5.5700     2.0120     0.8760 ha         1 82D       0.154000
     31 H11         -1.1230     1.9920     0.7590 h1         1 82D       0.046700
     32 H12         -0.7480     2.7250    -0.8160 h1         1 82D       0.046700
     33 H16         -4.1560    -1.8470     2.0970 ha         1 82D       0.151000
     34 H17          1.0310    -1.1450     0.9690 h4         1 82D       0.178000
     35 H18          2.3770     1.7150    -1.4430 hc         1 82D       0.070700
     36 H19          1.1780     1.6170     1.2440 h1         1 82D       0.039700
     37 C1           2.9050    -3.0110     1.7990 c3         1 82D       0.036600
     38 C15         -1.8360     0.3400    -1.3620 c3         1 82D       0.214100
     39 C29          0.6910     4.2820     1.0390 c3         1 82D       0.146100
     40 C28          2.8810     3.4990     0.6070 c3         1 82D       0.146100
     41 F23         -3.7740     2.3290    -0.9200 f          1 82D      -0.141900
     42 H7          -1.7550    -0.5990    -1.9160 h1         1 82D       0.052700
     43 H8          -2.0970     1.1060    -2.1060 h1         1 82D       0.052700
     44 H13          3.5240     2.9090    -0.0450 h1         1 82D       0.031367
     45 H14          3.2200     4.5340     0.5460 h1         1 82D       0.031367
     46 H15          3.0460     3.1510     1.6390 h1         1 82D       0.031367
     47 H20          2.9990    -3.9130     1.1930 h1         1 82D       0.047367
     48 H21          3.6550    -3.0420     2.5880 h1         1 82D       0.047367
     49 H22          1.9230    -3.0080     2.2650 h1         1 82D       0.047367
     50 H23          1.0780     5.3000     0.9890 h1         1 82D       0.031367
     51 H24         -0.3440     4.3130     0.6990 h1         1 82D       0.031367
     52 H25          0.6900     3.9770     2.0980 h1         1 82D       0.031367
@<TRIPOS>BOND
     1     1     2 ar  
     2     1     6 1   
     3     1    16 ar  
     4     2     3 ar  
     5     2    23 1   
     6     3     4 ar  
     7     3    24 1   
     8     4     5 ar  
     9     4    25 1   
    10     5    16 ar  
    11     5    26 1   
    12     6    14 2   
    13     6    17 1   
    14     7    17 1   
    15     7    20 1   
    16     7    27 1   
    17     7    28 1   
    18     8    13 ar  
    19     8    15 ar  
    20     8    22 1   
    21     9    10 ar  
    22     9    13 ar  
    23     9    29 1   
    24    10    11 ar  
    25    10    30 1   
    26    11    15 ar  
    27    11    41 1   
    28    12    18 1   
    29    12    20 1   
    30    12    31 1   
    31    12    32 1   
    32    13    33 1   
    33    14    19 1   
    34    14    34 1   
    35    15    38 1   
    36    16    19 1   
    37    17    18 1   
    38    17    35 1   
    39    18    21 1   
    40    18    36 1   
    41    19    37 1   
    42    20    38 1   
    43    21    39 1   
    44    21    40 1   
    45    37    47 1   
    46    37    48 1   
    47    37    49 1   
    48    38    42 1   
    49    38    43 1   
    50    39    50 1   
    51    39    51 1   
    52    39    52 1   
    53    40    44 1   
    54    40    45 1   
    55    40    46 1   
@<TRIPOS>SUBSTRUCTURE
     1 82D         1 TEMP              0 ****  ****    0 ROOT
