@<TRIPOS>MOLECULE
82E
   34    36     1     0     0
SMALL
bcc


@<TRIPOS>ATOM
      1 N1          -5.7780     1.0700     1.4480 n8         1 82E      -0.895700
      2 S2          -5.2920     0.8320    -0.0980 sy         1 82E       1.334200
      3 O5          -6.3450     0.0800    -0.7510 o          1 82E      -0.602800
      4 O6          -4.8660     2.1270    -0.5970 o          1 82E      -0.602800
      5 C7          -3.8600    -0.1720    -0.0790 cc         1 82E      -0.350600
      6 C8          -3.7980    -1.5330    -0.0390 cd         1 82E      -0.007000
      7 C9          -2.4660    -1.9980     0.0140 cd         1 82E      -0.154000
      8 C10         -1.5480    -0.9800     0.0130 cc         1 82E      -0.047600
      9 S11         -2.3080     0.5610    -0.0570 ss         1 82E       0.032200
     10 C12         -0.1080    -1.1010     0.0450 cc         1 82E       0.322800
     11 N13          0.5060    -2.3060     0.1210 nc         1 82E      -0.334000
     12 N14          1.7740    -2.1310     0.1310 nd         1 82E      -0.189800
     13 N15          2.0180    -0.8280     0.0620 na         1 82E       0.194300
     14 C16          0.8660    -0.1350     0.0060 cd         1 82E      -0.220600
     15 C17          3.3490    -0.3440     0.0510 ca         1 82E      -0.045200
     16 C18          4.4150    -1.2390     0.1060 ca         1 82E      -0.082500
     17 C19          5.7110    -0.7670     0.0910 ca         1 82E      -0.180500
     18 C20          5.9730     0.6040     0.0200 ca         1 82E       0.154100
     19 C21          4.9030     1.4930    -0.0330 ca         1 82E      -0.180500
     20 C22          3.6000     1.0160    -0.0160 ca         1 82E      -0.082500
     21 O23          7.2640     0.9660     0.0090 os         1 82E      -0.309900
     22 C24          7.5810     2.3440    -0.0600 c3         1 82E       0.122700
     23 H1N1        -6.0960     0.2310     1.9190 hn         1 82E       0.423800
     24 H2N1        -5.1190     1.5910     2.0150 hn         1 82E       0.423800
     25 H8          -4.6640    -2.1790    -0.0500 ha         1 82E       0.168000
     26 H9          -2.1950    -3.0420     0.0430 ha         1 82E       0.175000
     27 H16          0.8140     0.9380    -0.0550 h4         1 82E       0.192000
     28 H18          4.2410    -2.3040     0.1590 ha         1 82E       0.153000
     29 H19          6.5350    -1.4670     0.1340 ha         1 82E       0.150500
     30 H21          5.0530     2.5620    -0.0870 ha         1 82E       0.150500
     31 H22          2.7950     1.7370    -0.0570 ha         1 82E       0.153000
     32 H124         7.1940     2.8930     0.8020 h1         1 82E       0.045700
     33 H224         8.6650     2.4110    -0.0600 h1         1 82E       0.045700
     34 H324         7.1990     2.8040    -0.9740 h1         1 82E       0.045700
@<TRIPOS>BOND
     1     1     2 1   
     2     1    23 1   
     3     1    24 1   
     4     2     3 2   
     5     2     4 2   
     6     2     5 1   
     7     5     6 2   
     8     5     9 1   
     9     6     7 1   
    10     6    25 1   
    11     7     8 2   
    12     7    26 1   
    13     8     9 1   
    14     8    10 1   
    15    10    11 1   
    16    10    14 2   
    17    11    12 2   
    18    12    13 1   
    19    13    14 1   
    20    13    15 1   
    21    14    27 1   
    22    15    16 ar  
    23    15    20 ar  
    24    16    17 ar  
    25    16    28 1   
    26    17    18 ar  
    27    17    29 1   
    28    18    19 ar  
    29    18    21 1   
    30    19    20 ar  
    31    19    30 1   
    32    20    31 1   
    33    21    22 1   
    34    22    32 1   
    35    22    33 1   
    36    22    34 1   
@<TRIPOS>SUBSTRUCTURE
     1 82E         1 TEMP              0 ****  ****    0 ROOT
