@<TRIPOS>MOLECULE
82E
   34    36     1     0     0
SMALL
No Charge or Current Charge


@<TRIPOS>ATOM
      1 N1          -5.4980     1.4350     0.7820 n8         1 82E      -1.006100
      2 S2          -5.1290     0.7840    -0.6610 sy         1 82E       1.192600
      3 O5          -6.2410    -0.1170    -0.9480 o          1 82E      -0.532000
      4 O6          -4.7320     1.8950    -1.5240 o          1 82E      -0.532000
      5 C7          -3.7240    -0.1600    -0.1840 cc         1 82E      -0.495500
      6 C8          -3.7210    -1.4400     0.3220 cd         1 82E       0.011000
      7 C9          -2.4130    -1.9260     0.5900 cd         1 82E      -0.136000
      8 C10         -1.4290    -1.0170     0.2770 cc         1 82E      -0.192500
      9 S11         -2.0990     0.4760    -0.3710 ss         1 82E       0.322000
     10 C12         -0.0280    -1.2680     0.4580 cc         1 82E       0.257500
     11 N13          0.5040    -2.4310     0.9570 nc         1 82E      -0.334000
     12 N14          1.8110    -2.3090     0.9650 nd         1 82E      -0.189800
     13 N15          2.0650    -1.0500     0.4990 na         1 82E       0.245000
     14 C16          0.9360    -0.3610     0.1380 cd         1 82E      -0.188000
     15 C17          3.3030    -0.4620     0.2390 ca         1 82E      -0.045200
     16 C18          4.2370    -1.1180    -0.5870 ca         1 82E      -0.064500
     17 C19          5.4860    -0.5280    -0.8490 ca         1 82E      -0.162500
     18 C20          5.8180     0.7160    -0.2900 ca         1 82E       0.154100
     19 C21          4.8860     1.3750     0.5420 ca         1 82E      -0.162500
     20 C22          3.6360     0.7860     0.8040 ca         1 82E      -0.064500
     21 O23          7.0590     1.2440    -0.5830 os         1 82E      -0.333100
     22 C24          7.4970     2.5120    -0.0620 c3         1 82E       0.145900
     23 H1N1        -6.4440     1.0830     0.9020 hn         1 82E       0.479000
     24 H2N1        -4.9370     0.8480     1.3940 hn         1 82E       0.479000
     25 H8          -4.6210    -2.0250     0.5000 ha         1 82E       0.150000
     26 H9          -2.2200    -2.9140     0.9970 ha         1 82E       0.157000
     27 H16          0.9150     0.6350    -0.2810 h4         1 82E       0.174000
     28 H18          3.9940    -2.0830    -1.0280 ha         1 82E       0.135000
     29 H19          6.2020    -1.0380    -1.4890 ha         1 82E       0.132500
     30 H21          5.1130     2.3370     0.9920 ha         1 82E       0.132500
     31 H22          2.9260     1.3000     1.4510 ha         1 82E       0.135000
     32 H124         7.5190     2.4960     1.0350 h1         1 82E       0.045700
     33 H224         8.5090     2.7400    -0.4190 h1         1 82E       0.045700
     34 H324         6.8310     3.3200    -0.3900 h1         1 82E       0.045700
@<TRIPOS>BOND
     1     1     2 1   
     2     1    23 1   
     3     1    24 1   
     4     2     3 2   
     5     2     4 2   
     6     2     5 1   
     7     5     6 2   
     8     5     9 1   
     9     6     7 1   
    10     6    25 1   
    11     7     8 2   
    12     7    26 1   
    13     8     9 1   
    14     8    10 1   
    15    10    11 1   
    16    10    14 2   
    17    11    12 2   
    18    12    13 1   
    19    13    14 1   
    20    13    15 1   
    21    14    27 1   
    22    15    16 ar  
    23    15    20 ar  
    24    16    17 ar  
    25    16    28 1   
    26    17    18 ar  
    27    17    29 1   
    28    18    19 ar  
    29    18    21 1   
    30    19    20 ar  
    31    19    30 1   
    32    20    31 1   
    33    21    22 1   
    34    22    32 1   
    35    22    33 1   
    36    22    34 1   
@<TRIPOS>SUBSTRUCTURE
     1 82E         1 TEMP              0 ****  ****    0 ROOT
