@<TRIPOS>MOLECULE
82F
   73    76     1     0     0
SMALL
abcg2


@<TRIPOS>ATOM
      1 C4          -2.7630    -0.5510    -3.6800 ca         1 82F       0.327900
      2 C5          -2.9700    -0.2400    -1.4340 ca         1 82F       0.435900
      3 C6          -4.1710     0.8360     0.3270 ca         1 82F       0.110600
      4 N1          -2.7420     0.2620    -2.6330 nb         1 82F      -0.662000
      5 C7          -4.7900     2.0800     0.2860 ca         1 82F      -0.098000
      6 C8          -6.0130     2.2660     0.9060 ca         1 82F      -0.079000
      7 N2          -2.9340     0.6290    -0.3250 n          1 82F      -0.365500
      8 C9          -6.6300     1.2080     1.5640 ca         1 82F      -0.122000
      9 C10         -6.0140    -0.0290     1.6090 ca         1 82F      -0.054000
     10 C11         -4.7820    -0.2300     0.9840 ca         1 82F      -0.160600
     11 C12         -1.7960     1.2860     0.1260 c          1 82F       0.682100
     12 N3          -0.6540     1.0220    -0.5330 ns         1 82F      -0.512900
     13 C13          0.6120     1.5640    -0.0850 c3         1 82F       0.115000
     14 C14          1.7130     1.1260    -1.0440 c3         1 82F       0.146800
     15 C15          3.1940     2.9830    -0.9230 c6         1 82F       0.167800
     16 N4           3.0190     1.5720    -0.5960 n3         1 82F      -0.718600
     17 N           -3.4560    -2.0930     0.0720 ns         1 82F      -0.404100
     18 C           -4.1610    -1.5760     1.1180 c          1 82F       0.595600
     19 O           -4.3180    -2.2340     2.1310 o          1 82F      -0.534000
     20 C1          -3.2680    -1.5830    -1.2100 ca         1 82F       0.032600
     21 C16          4.4750     3.5600    -0.3520 c6         1 82F      -0.076400
     22 C17          5.6680     2.7820    -0.8790 c6         1 82F      -0.076400
     23 C18          5.4650     1.3060    -0.5790 c6         1 82F      -0.071400
     24 C19          4.1360     0.7650    -1.1050 c6         1 82F       0.193500
     25 C2          -3.3030    -2.4280    -2.3150 ca         1 82F      -0.114000
     26 C20          4.0680    -0.7390    -0.7950 c3         1 82F       0.181800
     27 C21          3.2090    -0.9040     1.4620 c3         1 82F       0.170800
     28 C22          3.5950    -0.7920     2.9310 c3         1 82F      -0.077900
     29 C23          2.3780    -0.5220     3.8070 c3         1 82F      -0.090600
     30 C24          4.8950    -2.4570     0.6630 c3         1 82F       0.170800
     31 C25          6.3890    -2.5020     0.3730 c3         1 82F      -0.077900
     32 C26          6.9490    -3.9140     0.4620 c3         1 82F      -0.090600
     33 C3          -3.0420    -1.9060    -3.5680 ca         1 82F      -0.139000
     34 N5           4.3420    -1.1150     0.5790 n3         1 82F      -0.734600
     35 O1          -1.8550     2.0390     1.0850 o          1 82F      -0.616100
     36 H1          -2.5500    -0.1070    -4.6440 h4         1 82F       0.029100
     37 H2          -4.3090     2.8980    -0.2340 ha         1 82F       0.136000
     38 H3          -6.4890     3.2370     0.8730 ha         1 82F       0.120000
     39 H4          -7.5890     1.3500     2.0430 ha         1 82F       0.120000
     40 H5          -6.4900    -0.8500     2.1270 ha         1 82F       0.133000
     41 H6          -0.6380     0.3580    -1.2880 hn         1 82F       0.319500
     42 H7           0.5430     2.6520    -0.0290 h1         1 82F       0.060200
     43 H8           0.8540     1.2050     0.9200 h1         1 82F       0.060200
     44 H9           1.6900     0.0370    -1.0870 h1         1 82F       0.033200
     45 H10          1.4850     1.4800    -2.0630 h1         1 82F       0.033200
     46 H11          3.1890     3.1300    -2.0190 h1         1 82F       0.030700
     47 H12          2.3410     3.5430    -0.5350 h1         1 82F       0.030700
     48 H14         -3.1710    -3.0540     0.2080 hn         1 82F       0.324500
     49 H15          4.5400     4.6190    -0.6140 hc         1 82F       0.048700
     50 H16          4.4450     3.4990     0.7400 hc         1 82F       0.048700
     51 H17          5.7600     2.9380    -1.9600 hc         1 82F       0.038200
     52 H18          6.5980     3.1370    -0.4300 hc         1 82F       0.038200
     53 H19          6.2740     0.7110    -1.0110 hc         1 82F       0.056700
     54 H20          5.5000     1.1390     0.4990 hc         1 82F       0.056700
     55 H21          4.1560     0.8350    -2.2100 h1         1 82F       0.014700
     56 H22         -3.5220    -3.4810    -2.1880 ha         1 82F       0.129000
     57 H23          3.1280    -1.1870    -1.1570 h1         1 82F       0.026700
     58 H24          4.8420    -1.1800    -1.4260 h1         1 82F       0.026700
     59 H25          2.4380    -1.6870     1.3390 h1         1 82F       0.033700
     60 H26          2.7480     0.0400     1.1780 h1         1 82F       0.033700
     61 H27          4.0900    -1.7020     3.2770 hc         1 82F       0.043450
     62 H28          4.3230     0.0160     3.0370 hc         1 82F       0.043450
     63 H29          1.8860     0.4120     3.5280 hc         1 82F       0.032533
     64 H30          1.6410    -1.3210     3.7160 hc         1 82F       0.032533
     65 H31          2.6540    -0.4450     4.8590 hc         1 82F       0.032533
     66 H32          4.3640    -3.1580    -0.0050 h1         1 82F       0.033700
     67 H33          4.7350    -2.8390     1.6740 h1         1 82F       0.033700
     68 H34          6.5960    -2.0920    -0.6200 hc         1 82F       0.043450
     69 H35          6.8980    -1.8470     1.0850 hc         1 82F       0.043450
     70 H36          6.7870    -4.3440     1.4520 hc         1 82F       0.032533
     71 H37          6.4750    -4.5770    -0.2650 hc         1 82F       0.032533
     72 H38          8.0220    -3.9310     0.2690 hc         1 82F       0.032533
     73 H39         -3.0580    -2.5370    -4.4450 ha         1 82F       0.131000
@<TRIPOS>BOND
     1     1     4 ar  
     2     1    33 ar  
     3     1    36 1   
     4     2     4 ar  
     5     2     7 1   
     6     2    20 ar  
     7     3     5 ar  
     8     3     7 1   
     9     3    10 ar  
    10     5     6 ar  
    11     5    37 1   
    12     6     8 ar  
    13     6    38 1   
    14     7    11 1   
    15     8     9 ar  
    16     8    39 1   
    17     9    10 ar  
    18     9    40 1   
    19    10    18 1   
    20    11    12 1   
    21    11    35 2   
    22    12    13 1   
    23    12    41 1   
    24    13    14 1   
    25    13    42 1   
    26    13    43 1   
    27    14    16 1   
    28    14    44 1   
    29    14    45 1   
    30    15    16 1   
    31    15    21 1   
    32    15    46 1   
    33    15    47 1   
    34    16    24 1   
    35    17    18 1   
    36    17    20 1   
    37    17    48 1   
    38    18    19 2   
    39    20    25 ar  
    40    21    22 1   
    41    21    49 1   
    42    21    50 1   
    43    22    23 1   
    44    22    51 1   
    45    22    52 1   
    46    23    24 1   
    47    23    53 1   
    48    23    54 1   
    49    24    26 1   
    50    24    55 1   
    51    25    33 ar  
    52    25    56 1   
    53    26    34 1   
    54    26    57 1   
    55    26    58 1   
    56    27    28 1   
    57    27    34 1   
    58    27    59 1   
    59    27    60 1   
    60    28    29 1   
    61    28    61 1   
    62    28    62 1   
    63    29    63 1   
    64    29    64 1   
    65    29    65 1   
    66    30    31 1   
    67    30    34 1   
    68    30    66 1   
    69    30    67 1   
    70    31    32 1   
    71    31    68 1   
    72    31    69 1   
    73    32    70 1   
    74    32    71 1   
    75    32    72 1   
    76    33    73 1   
@<TRIPOS>SUBSTRUCTURE
     1 82F         1 TEMP              0 ****  ****    0 ROOT
