@<TRIPOS>MOLECULE
82F
   73    76     1     0     0
SMALL
No Charge or Current Charge


@<TRIPOS>ATOM
      1 C4          -1.9500    -1.4820    -3.1640 ca         1 82F       0.327900
      2 C5          -2.7760    -0.6470    -1.1560 ca         1 82F       0.435900
      3 C6          -4.3880     0.7460     0.0370 ca         1 82F       0.110600
      4 N1          -2.2200    -0.4210    -2.3720 nb         1 82F      -0.662000
      5 C7          -4.9670     1.9940    -0.2830 ca         1 82F      -0.098000
      6 C8          -6.2690     2.3190     0.1190 ca         1 82F      -0.079000
      7 N2          -3.0370     0.5320    -0.3990 n          1 82F      -0.365500
      8 C9          -7.0090     1.4010     0.8720 ca         1 82F      -0.122000
      9 C10         -6.4430     0.1660     1.2180 ca         1 82F      -0.054000
     10 C11         -5.1370    -0.1880     0.8010 ca         1 82F      -0.160600
     11 C12         -2.0000     1.3860     0.0250 c          1 82F       0.682100
     12 N3          -0.7420     1.1010    -0.4410 ns         1 82F      -0.512900
     13 C13          0.4690     1.8470    -0.0900 c3         1 82F       0.115000
     14 C14          1.7270     1.2900    -0.8020 c3         1 82F       0.146800
     15 C15          3.0900     3.3480    -0.5610 c6         1 82F       0.167800
     16 N4           3.0280     1.8680    -0.3560 n3         1 82F      -0.718600
     17 N           -3.6940    -2.2090     0.5530 ns         1 82F      -0.404100
     18 C           -4.5980    -1.5040     1.3020 c          1 82F       0.595600
     19 O           -4.9660    -1.9740     2.3690 o          1 82F      -0.534000
     20 C1          -3.1190    -1.9470    -0.7060 ca         1 82F       0.032600
     21 C16          4.3840     3.9690     0.0120 c6         1 82F      -0.076400
     22 C17          5.6280     3.3110    -0.6140 c6         1 82F      -0.076400
     23 C18          5.5650     1.7840    -0.4130 c6         1 82F      -0.071400
     24 C19          4.2360     1.1790    -0.9570 c6         1 82F       0.193500
     25 C2          -2.8060    -3.0450    -1.5270 ca         1 82F      -0.114000
     26 C20          4.2980    -0.4020    -0.8400 c3         1 82F       0.181800
     27 C21          3.6510    -0.6100     1.5610 c3         1 82F       0.170800
     28 C22          3.9780    -1.1050     2.9900 c3         1 82F      -0.077900
     29 C23          3.1100    -0.4270     4.0680 c3         1 82F      -0.090600
     30 C24          4.7270    -2.5250     0.3940 c3         1 82F       0.170800
     31 C25          5.8240    -3.0380    -0.5710 c3         1 82F      -0.077900
     32 C26          6.0630    -4.5560    -0.4530 c3         1 82F      -0.090600
     33 C3          -2.2170    -2.8040    -2.7790 ca         1 82F      -0.139000
     34 N5           4.5950    -1.0410     0.4900 n3         1 82F      -0.734600
     35 O1          -2.1900     2.3190     0.7910 o          1 82F      -0.616100
     36 H1          -1.4990    -1.2650    -4.1320 h4         1 82F       0.029100
     37 H2          -4.4000     2.7180    -0.8640 ha         1 82F       0.136000
     38 H3          -6.6990     3.2830    -0.1460 ha         1 82F       0.120000
     39 H4          -8.0180     1.6490     1.1960 ha         1 82F       0.120000
     40 H5          -7.0310    -0.5260     1.8190 ha         1 82F       0.133000
     41 H6          -0.6850     0.3640    -1.1340 hn         1 82F       0.319500
     42 H7           0.3190     2.8990    -0.3620 h1         1 82F       0.060200
     43 H8           0.6160     1.7880     0.9970 h1         1 82F       0.060200
     44 H9           1.7190     0.2100    -0.6150 h1         1 82F       0.033200
     45 H10          1.6070     1.4300    -1.8850 h1         1 82F       0.033200
     46 H11          3.0250     3.5830    -1.6340 h1         1 82F       0.030700
     47 H12          2.2430     3.8460    -0.0700 h1         1 82F       0.030700
     48 H14         -3.4400    -3.0990     0.9650 hn         1 82F       0.324500
     49 H15          4.3940     5.0500    -0.1800 hc         1 82F       0.048700
     50 H16          4.4010     3.8410     1.1030 hc         1 82F       0.048700
     51 H17          5.6760     3.5460    -1.6870 hc         1 82F       0.038200
     52 H18          6.5420     3.7170    -0.1580 hc         1 82F       0.038200
     53 H19          6.4210     1.3140    -0.9150 hc         1 82F       0.056700
     54 H20          5.6680     1.5540     0.6560 hc         1 82F       0.056700
     55 H21          4.2170     1.3820    -2.0380 h1         1 82F       0.014700
     56 H22         -3.0270    -4.0620    -1.2100 ha         1 82F       0.129000
     57 H23          3.3780    -0.8280    -1.2580 h1         1 82F       0.026700
     58 H24          5.0900    -0.6870    -1.5420 h1         1 82F       0.026700
     59 H25          2.6270    -0.9210     1.3080 h1         1 82F       0.033700
     60 H26          3.6500     0.4830     1.6230 h1         1 82F       0.033700
     61 H27          3.8250    -2.1880     3.0590 hc         1 82F       0.043450
     62 H28          5.0350    -0.9080     3.2080 hc         1 82F       0.043450
     63 H29          3.2650     0.6580     4.0660 hc         1 82F       0.032533
     64 H30          2.0460    -0.6260     3.8890 hc         1 82F       0.032533
     65 H31          3.3680    -0.8090     5.0630 hc         1 82F       0.032533
     66 H32          3.7660    -2.9680     0.0990 h1         1 82F       0.033700
     67 H33          4.9780    -2.9360     1.3800 h1         1 82F       0.033700
     68 H34          5.5470    -2.8150    -1.6080 hc         1 82F       0.043450
     69 H35          6.7640    -2.5120    -0.3630 hc         1 82F       0.043450
     70 H36          6.3870    -4.8210     0.5610 hc         1 82F       0.032533
     71 H37          5.1440    -5.1110    -0.6800 hc         1 82F       0.032533
     72 H38          6.8400    -4.8770    -1.1560 hc         1 82F       0.032533
     73 H39         -1.9720    -3.6250    -3.4470 ha         1 82F       0.131000
@<TRIPOS>BOND
     1     1     4 ar  
     2     1    33 ar  
     3     1    36 1   
     4     2     4 ar  
     5     2     7 1   
     6     2    20 ar  
     7     3     5 ar  
     8     3     7 1   
     9     3    10 ar  
    10     5     6 ar  
    11     5    37 1   
    12     6     8 ar  
    13     6    38 1   
    14     7    11 1   
    15     8     9 ar  
    16     8    39 1   
    17     9    10 ar  
    18     9    40 1   
    19    10    18 1   
    20    11    12 1   
    21    11    35 2   
    22    12    13 1   
    23    12    41 1   
    24    13    14 1   
    25    13    42 1   
    26    13    43 1   
    27    14    16 1   
    28    14    44 1   
    29    14    45 1   
    30    15    16 1   
    31    15    21 1   
    32    15    46 1   
    33    15    47 1   
    34    16    24 1   
    35    17    18 1   
    36    17    20 1   
    37    17    48 1   
    38    18    19 2   
    39    20    25 ar  
    40    21    22 1   
    41    21    49 1   
    42    21    50 1   
    43    22    23 1   
    44    22    51 1   
    45    22    52 1   
    46    23    24 1   
    47    23    53 1   
    48    23    54 1   
    49    24    26 1   
    50    24    55 1   
    51    25    33 ar  
    52    25    56 1   
    53    26    34 1   
    54    26    57 1   
    55    26    58 1   
    56    27    28 1   
    57    27    34 1   
    58    27    59 1   
    59    27    60 1   
    60    28    29 1   
    61    28    61 1   
    62    28    62 1   
    63    29    63 1   
    64    29    64 1   
    65    29    65 1   
    66    30    31 1   
    67    30    34 1   
    68    30    66 1   
    69    30    67 1   
    70    31    32 1   
    71    31    68 1   
    72    31    69 1   
    73    32    70 1   
    74    32    71 1   
    75    32    72 1   
    76    33    73 1   
@<TRIPOS>SUBSTRUCTURE
     1 82F         1 TEMP              0 ****  ****    0 ROOT
