@<TRIPOS>MOLECULE
82G
   56    60     1     0     0
SMALL
abcg2


@<TRIPOS>ATOM
      1 C4           3.5580    -0.3630    -1.8810 ca         1 82G      -0.067000
      2 C5          -4.8700    -1.6500    -1.1720 ca         1 82G      -0.120000
      3 C6           4.4780    -2.4300    -0.1720 ca         1 82G      -0.126000
      4 C7          -3.2800    -2.8140     0.2250 ca         1 82G      -0.163000
      5 C8           1.6470    -0.6820     1.1750 cc         1 82G      -0.132100
      6 C10         -4.2590    -0.4510    -0.8360 ca         1 82G      -0.060300
      7 C13          3.3850    -1.6360     0.1760 ca         1 82G      -0.050200
      8 C15         -4.6530     0.9410    -1.2430 c5         1 82G      -0.033100
      9 C17         -0.4840     0.6960    -0.8570 c5         1 82G       0.171800
     10 C20         -2.6860     1.0040     0.2390 c5         1 82G       0.251800
     11 C21          0.7580     2.2790     0.5240 c5         1 82G       0.172500
     12 C24          1.1520     4.5890     1.0440 c3         1 82G       0.147600
     13 C1           4.6400    -1.1480    -2.2290 ca         1 82G      -0.142000
     14 C2           5.0950    -2.1720    -1.3810 ca         1 82G      -0.098000
     15 C3          -4.3670    -2.8310    -0.6410 ca         1 82G      -0.081000
     16 C9           2.9120    -0.5990    -0.6620 ca         1 82G      -0.092800
     17 C11          1.7970     0.0040     0.0020 cd         1 82G      -0.144400
     18 C12         -3.1580    -0.4130     0.0130 ca         1 82G      -0.131300
     19 C14         -2.6990    -1.6000     0.5500 ca         1 82G       0.202000
     20 C16         -3.4250     1.7850    -0.8780 c5         1 82G      -0.116400
     21 C18         -0.7590     2.4670     0.5690 c5         1 82G       0.165800
     22 C19          0.9550     1.1280    -0.5060 c5         1 82G       0.015500
     23 C23          2.9120     3.2630     0.1700 c3         1 82G       0.147600
     24 N25          2.5960    -1.6640     1.2880 na         1 82G      -0.088700
     25 N26         -1.2500     1.1370     0.2880 n3         1 82G      -0.726600
     26 N27          1.4800     3.4840     0.1640 n3         1 82G      -0.708600
     27 F28         -1.6660    -1.5960     1.4080 f          1 82G      -0.172000
     28 H1           3.2130     0.4200    -2.5460 ha         1 82G       0.112000
     29 H3           4.8370    -3.2210     0.4740 ha         1 82G       0.111000
     30 H4          -2.8900    -3.7310     0.6470 ha         1 82G       0.129000
     31 H5           0.9100    -0.5450     1.9510 h4         1 82G       0.224000
     32 H6          -4.9230     1.0140    -2.2970 hc         1 82G       0.055700
     33 H7          -5.5310     1.2560    -0.6710 hc         1 82G       0.055700
     34 H8          -0.7940     1.1860    -1.7930 h1         1 82G       0.044200
     35 H9          -0.5700    -0.3800    -1.0100 h1         1 82G       0.044200
     36 H10         -3.0640     1.3410     1.2130 h1         1 82G       0.069700
     37 H11          1.0820     1.9220     1.5180 h1         1 82G       0.036700
     38 H15          1.7100     5.4760     0.7400 h1         1 82G       0.031200
     39 H16          0.0930     4.8380     0.9860 h1         1 82G       0.031200
     40 H17          1.3950     4.3890     2.1000 h1         1 82G       0.031200
     41 H18          5.1460    -0.9760    -3.1710 ha         1 82G       0.108000
     42 H19          5.9460    -2.7700    -1.6820 ha         1 82G       0.107000
     43 H20         -4.8230    -3.7790    -0.8950 ha         1 82G       0.116000
     44 H21         -2.7760     1.8720    -1.7520 hc         1 82G       0.051200
     45 H22         -3.6860     2.7950    -0.5660 hc         1 82G       0.051200
     46 H23         -1.1210     2.8190     1.5370 h1         1 82G       0.040700
     47 H24         -1.0600     3.2050    -0.1940 h1         1 82G       0.040700
     48 H25          1.4240     1.5350    -1.4060 hc         1 82G       0.068700
     49 H26          3.1940     2.4900    -0.5440 h1         1 82G       0.031200
     50 H27          3.4270     4.1800    -0.1200 h1         1 82G       0.031200
     51 H28          3.2980     2.9600     1.1570 h1         1 82G       0.031200
     52 C22          2.7320    -2.5910     2.3830 c3         1 82G       0.066900
     53 H2          -5.7240    -1.6680    -1.8370 ha         1 82G       0.118000
     54 H12          2.5430    -3.6150     2.0600 h1         1 82G       0.047700
     55 H13          3.7320    -2.5410     2.8140 h1         1 82G       0.047700
     56 H14          2.0140    -2.3370     3.1580 h1         1 82G       0.047700
@<TRIPOS>BOND
     1     1    13 ar  
     2     1    16 ar  
     3     1    28 1   
     4     2     6 ar  
     5     2    15 ar  
     6     2    53 1   
     7     3     7 ar  
     8     3    14 ar  
     9     3    29 1   
    10     4    15 ar  
    11     4    19 ar  
    12     4    30 1   
    13     5    17 2   
    14     5    24 1   
    15     5    31 1   
    16     6     8 1   
    17     6    18 ar  
    18     7    16 ar  
    19     7    24 1   
    20     8    20 1   
    21     8    32 1   
    22     8    33 1   
    23     9    22 1   
    24     9    25 1   
    25     9    34 1   
    26     9    35 1   
    27    10    18 1   
    28    10    20 1   
    29    10    25 1   
    30    10    36 1   
    31    11    21 1   
    32    11    22 1   
    33    11    26 1   
    34    11    37 1   
    35    12    26 1   
    36    12    38 1   
    37    12    39 1   
    38    12    40 1   
    39    13    14 ar  
    40    13    41 1   
    41    14    42 1   
    42    15    43 1   
    43    16    17 1   
    44    17    22 1   
    45    18    19 ar  
    46    19    27 1   
    47    20    44 1   
    48    20    45 1   
    49    21    25 1   
    50    21    46 1   
    51    21    47 1   
    52    22    48 1   
    53    23    26 1   
    54    23    49 1   
    55    23    50 1   
    56    23    51 1   
    57    24    52 1   
    58    52    54 1   
    59    52    55 1   
    60    52    56 1   
@<TRIPOS>SUBSTRUCTURE
     1 82G         1 TEMP              0 ****  ****    0 ROOT
