@<TRIPOS>MOLECULE
82G
   56    60     1     0     0
SMALL
No Charge or Current Charge


@<TRIPOS>ATOM
      1 C4           3.7640    -0.2070    -1.8170 ca         1 82G      -0.067000
      2 C5          -4.9520    -1.5440    -1.2480 ca         1 82G      -0.120000
      3 C6           4.6500    -2.2860    -0.0840 ca         1 82G      -0.126000
      4 C7          -3.5250    -2.8330     0.2530 ca         1 82G      -0.163000
      5 C8           1.5100    -0.7620     1.0690 cc         1 82G      -0.132100
      6 C10         -4.3180    -0.3700    -0.8070 ca         1 82G      -0.060300
      7 C13          3.4710    -1.5680     0.1720 ca         1 82G      -0.050200
      8 C15         -4.6600     1.0340    -1.2270 c5         1 82G      -0.033100
      9 C17         -0.5880     0.4660    -0.6780 c5         1 82G       0.171800
     10 C20         -2.7790     0.9630     0.4630 c5         1 82G       0.251800
     11 C21          0.7590     2.1640     0.5540 c5         1 82G       0.172500
     12 C24          1.2530     4.6030     0.9380 c3         1 82G       0.147600
     13 C1           4.9530    -0.9130    -2.0980 ca         1 82G      -0.142000
     14 C2           5.3940    -1.9470    -1.2350 ca         1 82G      -0.098000
     15 C3          -4.5450    -2.7840    -0.7190 ca         1 82G      -0.081000
     16 C9           3.0540    -0.5690    -0.6650 ca         1 82G      -0.092800
     17 C11          1.8290    -0.0670    -0.0930 cd         1 82G      -0.144400
     18 C12         -3.3010    -0.4160     0.1290 ca         1 82G      -0.131300
     19 C14         -2.9050    -1.6470     0.6870 ca         1 82G       0.202000
     20 C16         -3.3950     1.8260    -0.7260 c5         1 82G      -0.116400
     21 C18         -0.7810     2.4370     0.5800 c5         1 82G       0.165800
     22 C19          0.8700     1.0320    -0.5480 c5         1 82G       0.015500
     23 C23          2.9550     3.2000    -0.0930 c3         1 82G       0.147600
     24 N25          2.5570    -1.6930     1.2130 na         1 82G      -0.088700
     25 N26         -1.2730     1.0430     0.5120 n3         1 82G      -0.726600
     26 N27          1.4980     3.4030     0.1000 n3         1 82G      -0.708600
     27 F28         -1.9500    -1.7060     1.6420 f          1 82G      -0.172000
     28 H1           3.4120     0.5870    -2.4720 ha         1 82G       0.112000
     29 H3           4.9840    -3.0810     0.5790 ha         1 82G       0.111000
     30 H4          -3.2190    -3.7860     0.6760 ha         1 82G       0.129000
     31 H5           0.6750    -0.6790     1.7580 h4         1 82G       0.224000
     32 H6          -4.8090     1.1340    -2.3080 hc         1 82G       0.055700
     33 H7          -5.5750     1.3840    -0.7340 hc         1 82G       0.055700
     34 H8          -1.0190     0.7970    -1.6300 h1         1 82G       0.044200
     35 H9          -0.6120    -0.6320    -0.6810 h1         1 82G       0.044200
     36 H10         -3.2140     1.2830     1.4210 h1         1 82G       0.069700
     37 H11          1.1040     1.8200     1.5380 h1         1 82G       0.036700
     38 H15          1.7980     5.4710     0.5440 h1         1 82G       0.031200
     39 H16          0.1880     4.8680     0.9570 h1         1 82G       0.031200
     40 H17          1.5840     4.4310     1.9710 h1         1 82G       0.031200
     41 H18          5.5340    -0.6620    -2.9820 ha         1 82G       0.108000
     42 H19          6.3120    -2.4840    -1.4620 ha         1 82G       0.107000
     43 H20         -5.0270    -3.7010    -1.0500 ha         1 82G       0.116000
     44 H21         -2.7110     1.9650    -1.5670 hc         1 82G       0.051200
     45 H22         -3.6590     2.8350    -0.3910 hc         1 82G       0.051200
     46 H23         -1.0970     2.9500     1.4980 h1         1 82G       0.040700
     47 H24         -1.0900     3.0390    -0.2860 h1         1 82G       0.040700
     48 H25          1.1700     1.4410    -1.5180 hc         1 82G       0.068700
     49 H26          3.1580     2.4250    -0.8420 h1         1 82G       0.031200
     50 H27          3.4350     4.1250    -0.4430 h1         1 82G       0.031200
     51 H28          3.4350     2.9010     0.8480 h1         1 82G       0.031200
     52 C22          2.7180    -2.6930     2.2790 c3         1 82G       0.066900
     53 H2          -5.7520    -1.4960    -1.9830 ha         1 82G       0.118000
     54 H12          2.7320    -3.6980     1.8410 h1         1 82G       0.047700
     55 H13          3.6600    -2.5130     2.8120 h1         1 82G       0.047700
     56 H14          1.8830    -2.6190     2.9860 h1         1 82G       0.047700
@<TRIPOS>BOND
     1     1    13 ar  
     2     1    16 ar  
     3     1    28 1   
     4     2     6 ar  
     5     2    15 ar  
     6     2    53 1   
     7     3     7 ar  
     8     3    14 ar  
     9     3    29 1   
    10     4    15 ar  
    11     4    19 ar  
    12     4    30 1   
    13     5    17 2   
    14     5    24 1   
    15     5    31 1   
    16     6     8 1   
    17     6    18 ar  
    18     7    16 ar  
    19     7    24 1   
    20     8    20 1   
    21     8    32 1   
    22     8    33 1   
    23     9    22 1   
    24     9    25 1   
    25     9    34 1   
    26     9    35 1   
    27    10    18 1   
    28    10    20 1   
    29    10    25 1   
    30    10    36 1   
    31    11    21 1   
    32    11    22 1   
    33    11    26 1   
    34    11    37 1   
    35    12    26 1   
    36    12    38 1   
    37    12    39 1   
    38    12    40 1   
    39    13    14 ar  
    40    13    41 1   
    41    14    42 1   
    42    15    43 1   
    43    16    17 1   
    44    17    22 1   
    45    18    19 ar  
    46    19    27 1   
    47    20    44 1   
    48    20    45 1   
    49    21    25 1   
    50    21    46 1   
    51    21    47 1   
    52    22    48 1   
    53    23    26 1   
    54    23    49 1   
    55    23    50 1   
    56    23    51 1   
    57    24    52 1   
    58    52    54 1   
    59    52    55 1   
    60    52    56 1   
@<TRIPOS>SUBSTRUCTURE
     1 82G         1 TEMP              0 ****  ****    0 ROOT
