@<TRIPOS>MOLECULE
82H
   76    81     1     0     0
SMALL
abcg2


@<TRIPOS>ATOM
      1 C1          37.2510     9.0330    45.1470 ca         1 82H      -0.105000
      2 C2          36.1000     8.3080    45.4340 ca         1 82H      -0.099000
      3 C3          44.8270     7.1380    52.2020 ca         1 82H      -0.108000
      4 C7          40.0840     5.5380    50.1990 ca         1 82H      -0.095000
      5 C8          41.4560     7.4620    50.7780 ca         1 82H      -0.124000
      6 C9          36.9980     7.7660    47.6040 ca         1 82H      -0.081000
      7 C10         44.5290     5.0550    51.0460 ca         1 82H      -0.066000
      8 C11         40.7900     9.5300    49.3350 cc         1 82H       0.359800
      9 C12         40.7230     8.1970    49.8310 ca         1 82H      -0.194900
     10 C13         35.9680     7.6740    46.6700 ca         1 82H      -0.135600
     11 C14         44.0600     6.0040    51.9470 ca         1 82H      -0.126300
     12 C15         39.6740     7.6010    49.1020 ca         1 82H      -0.049200
     13 C16         38.1500     8.4850    47.3060 ca         1 82H       0.031800
     14 C19         41.1200     6.1340    50.9570 ca         1 82H       0.108100
     15 C20         34.7580     6.8750    47.0600 c          1 82H       0.605700
     16 C21         45.1820     4.2400    54.5630 c          1 82H       0.567100
     17 C22         31.7560     6.7410    48.1070 c5         1 82H      -0.130400
     18 C24         48.3170     5.3640    49.5190 c6         1 82H       0.118600
     19 C27         32.3160     6.5710    46.6790 c5         1 82H       0.089700
     20 C30         42.7650     5.7800    52.6900 c3         1 82H       0.208600
     21 C31         42.8910     4.7120    53.7990 c3         1 82H       0.115700
     22 C32         46.3810     4.7860    55.3690 c3         1 82H       0.095000
     23 C4          39.3520     6.2490    49.2740 ca         1 82H      -0.089000
     24 C5          38.2790     9.1260    46.0740 ca         1 82H      -0.084000
     25 C6          46.0600     7.3070    51.5870 ca         1 82H      -0.116000
     26 C17         46.5400     6.3480    50.7040 ca         1 82H       0.064100
     27 C18         45.7550     5.2230    50.4150 ca         1 82H       0.061100
     28 C23         31.0080     5.4330    48.3230 c5         1 82H       0.151600
     29 C25         47.2600     4.6700    48.6940 c6         1 82H       0.118600
     30 C26         32.2940     5.0370    46.4550 c5         1 82H       0.142600
     31 C28         41.6480     4.6490    54.6760 c3         1 82H      -0.100100
     32 C29         47.5180     5.2360    54.4970 c3         1 82H      -0.139100
     33 N33         39.8840     9.7390    48.4010 nd         1 82H      -0.507100
     34 N34         39.1900     8.5750    48.2550 na         1 82H       0.150800
     35 N35         33.6050     7.2070    46.4460 ns         1 82H      -0.499900
     36 N36         44.0710     4.9830    54.6070 ns         1 82H      -0.490900
     37 O37         34.8370     5.9760    47.9000 o          1 82H      -0.590100
     38 O38         45.3330     3.2060    53.9260 o          1 82H      -0.566100
     39 O39         47.7680     6.5390    50.1330 os         1 82H      -0.338100
     40 O40         46.1700     4.2620    49.5340 os         1 82H      -0.329100
     41 O41         31.8090     4.4460    47.6620 os         1 82H      -0.443000
     42 O42         41.7240     5.2860    51.8420 os         1 82H      -0.351100
     43 F43         45.9770     5.8210    56.1910 f          1 82H      -0.115000
     44 F44         46.7980     3.7900    56.2220 f          1 82H      -0.115000
     45 H1          37.3560     9.5150    44.1840 ha         1 82H       0.122000
     46 H2          35.3270     8.2230    44.6820 ha         1 82H       0.114000
     47 H3          44.4660     7.8880    52.8940 ha         1 82H       0.114000
     48 H4          39.8730     4.4900    50.3680 ha         1 82H       0.133000
     49 H5          42.2590     7.9320    51.3240 ha         1 82H       0.127000
     50 H6          36.8760     7.2950    48.5670 ha         1 82H       0.148000
     51 H7          43.9480     4.1700    50.8180 ha         1 82H       0.145000
     52 H8          41.4560    10.3250    49.6320 h4         1 82H       0.051800
     53 H9          32.5770     6.8270    48.8170 hc         1 82H       0.067200
     54 H10         31.1160     7.6180    48.1930 hc         1 82H       0.067200
     55 H11         48.6930     4.6950    50.2980 h1         1 82H       0.069700
     56 H12         49.1430     5.6970    48.8950 h1         1 82H       0.069700
     57 H13         31.6400     7.0400    45.9670 h1         1 82H       0.050700
     58 H14         42.4440     6.7200    53.1500 h1         1 82H       0.048700
     59 H15         43.0620     3.7530    53.3120 h1         1 82H       0.100700
     60 H16         38.5700     5.7660    48.7080 ha         1 82H       0.138000
     61 H17         39.1800     9.6780    45.8500 ha         1 82H       0.140000
     62 H18         46.6720     8.1760    51.7910 ha         1 82H       0.130000
     63 H19         30.0070     5.4680    47.8750 h1         1 82H       0.048700
     64 H20         30.9170     5.1440    49.3690 h1         1 82H       0.048700
     65 H21         47.6540     3.7650    48.2360 h1         1 82H       0.070700
     66 H22         46.8840     5.3390    47.9150 h1         1 82H       0.070700
     67 H23         31.6230     4.7910    45.6260 h1         1 82H       0.056200
     68 H24         33.2830     4.6330    46.2480 h1         1 82H       0.056200
     69 H25         41.7390     3.8440    55.4050 hc         1 82H       0.050367
     70 H26         41.5130     5.5920    55.2130 hc         1 82H       0.050367
     71 H27         40.7640     4.4700    54.0650 hc         1 82H       0.050367
     72 H28         48.3330     5.5910    55.1270 hc         1 82H       0.071700
     73 H29         47.8580     4.4000    53.8880 hc         1 82H       0.071700
     74 H30         47.1810     6.0380    53.8410 hc         1 82H       0.071700
     75 H31         33.6060     8.0080    45.8370 hn         1 82H       0.316500
     76 H32         44.0770     5.8160    55.1760 hn         1 82H       0.329500
@<TRIPOS>BOND
     1     1     2 ar  
     2     1    24 ar  
     3     1    45 1   
     4     2    10 ar  
     5     2    46 1   
     6     3    11 ar  
     7     3    25 ar  
     8     3    47 1   
     9     4    14 ar  
    10     4    23 ar  
    11     4    48 1   
    12     5     9 ar  
    13     5    14 ar  
    14     5    49 1   
    15     6    10 ar  
    16     6    13 ar  
    17     6    50 1   
    18     7    11 ar  
    19     7    27 ar  
    20     7    51 1   
    21     8     9 1   
    22     8    33 2   
    23     8    52 1   
    24     9    12 ar  
    25    10    15 1   
    26    11    20 1   
    27    12    23 ar  
    28    12    34 1   
    29    13    24 ar  
    30    13    34 1   
    31    14    42 1   
    32    15    35 1   
    33    15    37 2   
    34    16    22 1   
    35    16    36 1   
    36    16    38 2   
    37    17    19 1   
    38    17    28 1   
    39    17    53 1   
    40    17    54 1   
    41    18    29 1   
    42    18    39 1   
    43    18    55 1   
    44    18    56 1   
    45    19    30 1   
    46    19    35 1   
    47    19    57 1   
    48    20    21 1   
    49    20    42 1   
    50    20    58 1   
    51    21    31 1   
    52    21    36 1   
    53    21    59 1   
    54    22    32 1   
    55    22    43 1   
    56    22    44 1   
    57    23    60 1   
    58    24    61 1   
    59    25    26 ar  
    60    25    62 1   
    61    26    27 ar  
    62    26    39 1   
    63    27    40 1   
    64    28    41 1   
    65    28    63 1   
    66    28    64 1   
    67    29    40 1   
    68    29    65 1   
    69    29    66 1   
    70    30    41 1   
    71    30    67 1   
    72    30    68 1   
    73    31    69 1   
    74    31    70 1   
    75    31    71 1   
    76    32    72 1   
    77    32    73 1   
    78    32    74 1   
    79    33    34 1   
    80    35    75 1   
    81    36    76 1   
@<TRIPOS>SUBSTRUCTURE
     1 82H         1 TEMP              0 ****  ****    0 ROOT
