@<TRIPOS>MOLECULE
82H
   76    81     1     0     0
SMALL
No Charge or Current Charge


@<TRIPOS>ATOM
      1 C1          37.6690     8.2970    45.1560 ca         1 82H      -0.105000
      2 C2          36.3790     7.8260    45.4570 ca         1 82H      -0.099000
      3 C3          44.6480     7.1860    52.3550 ca         1 82H      -0.108000
      4 C7          40.1530     5.3250    50.3110 ca         1 82H      -0.095000
      5 C8          41.2420     7.3490    51.1770 ca         1 82H      -0.124000
      6 C9          36.9520     7.7950    47.8200 ca         1 82H      -0.081000
      7 C10         44.4490     5.0880    51.1330 ca         1 82H      -0.066000
      8 C11         40.4990     9.4780    49.8770 cc         1 82H       0.359800
      9 C12         40.5320     8.0710    50.2070 ca         1 82H      -0.194900
     10 C13         35.9990     7.5670    46.7980 ca         1 82H      -0.135600
     11 C14         43.9750     5.9660    52.1320 ca         1 82H      -0.126300
     12 C15         39.6790     7.4700    49.3370 ca         1 82H      -0.049200
     13 C16         38.2460     8.2640    47.5190 ca         1 82H       0.031800
     14 C19         41.0460     5.9430    51.2210 ca         1 82H       0.108100
     15 C20         34.6180     7.0590    47.1720 c          1 82H       0.605700
     16 C21         45.5400     4.0570    54.4030 c          1 82H       0.567100
     17 C22         31.5360     7.4180    47.0920 c5         1 82H      -0.130400
     18 C24         48.0350     5.9180    49.1490 c6         1 82H       0.118600
     19 C27         32.3470     6.3740    46.2660 c5         1 82H       0.089700
     20 C30         42.7580     5.5930    52.9870 c3         1 82H       0.208600
     21 C31         43.0730     4.4550    54.0030 c3         1 82H       0.115700
     22 C32         46.7950     4.5780    55.1650 c3         1 82H       0.095000
     23 C4          39.4550     6.0870    49.3480 ca         1 82H      -0.089000
     24 C5          38.6000     8.5160    46.1820 ca         1 82H      -0.084000
     25 C6          45.7840     7.5230    51.5990 ca         1 82H      -0.116000
     26 C17         46.2600     6.6410    50.6170 ca         1 82H       0.064100
     27 C18         45.5780     5.4240    50.3710 ca         1 82H       0.061100
     28 C23         30.5530     6.4650    47.8110 c5         1 82H       0.151600
     29 C25         46.9690     5.0660    48.4280 c6         1 82H       0.118600
     30 C26         32.2890     5.0660    47.1320 c5         1 82H       0.142600
     31 C28         41.9420     4.2390    55.0300 c3         1 82H      -0.100100
     32 C29         47.7550     5.3300    54.2160 c3         1 82H      -0.139100
     33 N33         39.6690     9.7380    48.8540 nd         1 82H      -0.507100
     34 N34         39.1710     8.4750    48.5400 na         1 82H       0.150800
     35 N35         33.7430     6.8620    46.1060 ns         1 82H      -0.499900
     36 N36         44.3460     4.6880    54.7030 ns         1 82H      -0.490900
     37 O37         34.3230     6.8440    48.3400 o          1 82H      -0.590100
     38 O38         45.5950     3.1380    53.5950 o          1 82H      -0.566100
     39 O39         47.3950     6.9720    49.9030 os         1 82H      -0.338100
     40 O40         46.0160     4.5570    49.3880 os         1 82H      -0.329100
     41 O41         31.4070     5.3850    48.2360 os         1 82H      -0.443000
     42 O42         41.6920     5.1290    52.1320 os         1 82H      -0.351100
     43 F43         46.4530     5.4130    56.1790 f          1 82H      -0.115000
     44 F44         47.4650     3.5460    55.7320 f          1 82H      -0.115000
     45 H1          37.9470     8.4930    44.1230 ha         1 82H       0.122000
     46 H2          35.6900     7.6700    44.6310 ha         1 82H       0.114000
     47 H3          44.2980     7.8710    53.1250 ha         1 82H       0.114000
     48 H4          40.0070     4.2490    50.3530 ha         1 82H       0.133000
     49 H5          41.9100     7.8670    51.8580 ha         1 82H       0.127000
     50 H6          36.6920     7.6090    48.8600 ha         1 82H       0.148000
     51 H7          43.9410     4.1440    50.9470 ha         1 82H       0.145000
     52 H8          41.0260    10.3160    50.3150 h4         1 82H       0.051800
     53 H9          32.1270     7.9800    47.8210 hc         1 82H       0.067200
     54 H10         31.0240     8.1470    46.4560 hc         1 82H       0.067200
     55 H11         48.6080     5.2820    49.8390 h1         1 82H       0.069700
     56 H12         48.7340     6.3600    48.4250 h1         1 82H       0.069700
     57 H13         31.8710     6.1960    45.2920 h1         1 82H       0.050700
     58 H14         42.4340     6.4720    53.5590 h1         1 82H       0.048700
     59 H15         43.1630     3.5260    53.4240 h1         1 82H       0.100700
     60 H16         38.7740     5.6150    48.6430 ha         1 82H       0.138000
     61 H17         39.5970     8.8800    45.9420 ha         1 82H       0.140000
     62 H18         46.3040     8.4600    51.7830 ha         1 82H       0.130000
     63 H19         29.7850     6.0740    47.1280 h1         1 82H       0.048700
     64 H20         30.0620     6.9270    48.6780 h1         1 82H       0.048700
     65 H21         47.4360     4.2250    47.8970 h1         1 82H       0.070700
     66 H22         46.4380     5.6870    47.6930 h1         1 82H       0.070700
     67 H23         31.8500     4.2410    46.5560 h1         1 82H       0.056200
     68 H24         33.2600     4.7270    47.5160 h1         1 82H       0.056200
     69 H25         42.1870     3.4070    55.7010 hc         1 82H       0.050367
     70 H26         41.7890     5.1390    55.6380 hc         1 82H       0.050367
     71 H27         40.9980     4.0000    54.5260 hc         1 82H       0.050367
     72 H28         48.6420     5.6790    54.7570 hc         1 82H       0.071700
     73 H29         48.0850     4.6760    53.4000 hc         1 82H       0.071700
     74 H30         47.2570     6.2020    53.7750 hc         1 82H       0.071700
     75 H31         34.1200     7.0800    45.1930 hn         1 82H       0.316500
     76 H32         44.3890     5.4250    55.3980 hn         1 82H       0.329500
@<TRIPOS>BOND
     1     1     2 ar  
     2     1    24 ar  
     3     1    45 1   
     4     2    10 ar  
     5     2    46 1   
     6     3    11 ar  
     7     3    25 ar  
     8     3    47 1   
     9     4    14 ar  
    10     4    23 ar  
    11     4    48 1   
    12     5     9 ar  
    13     5    14 ar  
    14     5    49 1   
    15     6    10 ar  
    16     6    13 ar  
    17     6    50 1   
    18     7    11 ar  
    19     7    27 ar  
    20     7    51 1   
    21     8     9 1   
    22     8    33 2   
    23     8    52 1   
    24     9    12 ar  
    25    10    15 1   
    26    11    20 1   
    27    12    23 ar  
    28    12    34 1   
    29    13    24 ar  
    30    13    34 1   
    31    14    42 1   
    32    15    35 1   
    33    15    37 2   
    34    16    22 1   
    35    16    36 1   
    36    16    38 2   
    37    17    19 1   
    38    17    28 1   
    39    17    53 1   
    40    17    54 1   
    41    18    29 1   
    42    18    39 1   
    43    18    55 1   
    44    18    56 1   
    45    19    30 1   
    46    19    35 1   
    47    19    57 1   
    48    20    21 1   
    49    20    42 1   
    50    20    58 1   
    51    21    31 1   
    52    21    36 1   
    53    21    59 1   
    54    22    32 1   
    55    22    43 1   
    56    22    44 1   
    57    23    60 1   
    58    24    61 1   
    59    25    26 ar  
    60    25    62 1   
    61    26    27 ar  
    62    26    39 1   
    63    27    40 1   
    64    28    41 1   
    65    28    63 1   
    66    28    64 1   
    67    29    40 1   
    68    29    65 1   
    69    29    66 1   
    70    30    41 1   
    71    30    67 1   
    72    30    68 1   
    73    31    69 1   
    74    31    70 1   
    75    31    71 1   
    76    32    72 1   
    77    32    73 1   
    78    32    74 1   
    79    33    34 1   
    80    35    75 1   
    81    36    76 1   
@<TRIPOS>SUBSTRUCTURE
     1 82H         1 TEMP              0 ****  ****    0 ROOT
