@<TRIPOS>MOLECULE
82I
   19    19     1     0     0
SMALL
bcc


@<TRIPOS>ATOM
      1 C01          3.1480     1.6610    -0.0090 c3         1 82I       0.214100
      2 N05          2.3020     0.4920     0.0170 nu         1 82I      -0.760000
      3 C07          0.9660     0.5210     0.0050 cc         1 82I       0.152400
      4 C08          0.2570     1.7690    -0.0370 cc         1 82I       0.305500
      5 N10         -1.0290     1.8550    -0.0560 nd         1 82I      -0.396300
      6 N11         -1.7620     0.7610    -0.0340 n          1 82I      -0.198800
      7 C12         -3.2040     0.9460    -0.0570 c3         1 82I       0.098300
      8 C16         -1.2600    -0.5310     0.0160 c          1 82I       0.709700
      9 O17         -2.0210    -1.4920     0.0420 o          1 82I      -0.610500
     10 C18          0.1650    -0.6010     0.0300 cd         1 82I      -0.231800
     11 CL1          0.8620    -2.1760     0.0830 cl         1 82I      -0.087400
     12 H1           3.0000     2.2550    -0.9130 h1         1 82I       0.044033
     13 H2           2.9890     2.3040     0.8580 h1         1 82I       0.044033
     14 H3           4.1810     1.3280     0.0060 h1         1 82I       0.044033
     15 H4           0.7880     2.7100    -0.0580 h4         1 82I       0.045800
     16 H5          -3.6590     0.5750     0.8600 h1         1 82I       0.057700
     17 H6          -3.3980     2.0090    -0.1500 h1         1 82I       0.057700
     18 H7          -3.6450     0.4240    -0.9040 h1         1 82I       0.057700
     19 H9           2.7530    -0.4070     0.0510 hn         1 82I       0.454800
@<TRIPOS>BOND
     1     1     2 1   
     2     1    12 1   
     3     1    13 1   
     4     1    14 1   
     5     2     3 1   
     6     2    19 1   
     7     3     4 1   
     8     3    10 2   
     9     4     5 2   
    10     4    15 1   
    11     5     6 1   
    12     6     7 1   
    13     6     8 1   
    14     7    16 1   
    15     7    17 1   
    16     7    18 1   
    17     8     9 2   
    18     8    10 1   
    19    10    11 1   
@<TRIPOS>SUBSTRUCTURE
     1 82I         1 TEMP              0 ****  ****    0 ROOT
