@<TRIPOS>MOLECULE
82I
   19    19     1     0     0
SMALL
No Charge or Current Charge


@<TRIPOS>ATOM
      1 C01          3.2500     1.6590    -0.0100 c3         1 82I       0.214100
      2 N05          2.3330     0.5030     0.0210 nu         1 82I      -0.815200
      3 C07          0.9410     0.5290     0.0050 cc         1 82I       0.152400
      4 C08          0.2330     1.7980    -0.0480 cc         1 82I       0.305500
      5 N10         -1.0900     1.9740    -0.0690 nd         1 82I      -0.396300
      6 N11         -1.8050     0.7720    -0.0350 n          1 82I      -0.131800
      7 C12         -3.2730     0.9500    -0.0570 c3         1 82I       0.098300
      8 C16         -1.2920    -0.5540     0.0180 c          1 82I       0.567200
      9 O17         -2.0170    -1.5440     0.0450 o          1 82I      -0.535000
     10 C18          0.1900    -0.6240     0.0370 cd         1 82I      -0.156200
     11 Cl1          0.9080    -2.2180     0.1020 cl         1 82I      -0.163000
     12 H1           3.0990     2.2470    -0.9250 h1         1 82I       0.044033
     13 H2           3.0790     2.3100     0.8580 h1         1 82I       0.044033
     14 H3           4.2940     1.3200     0.0140 h1         1 82I       0.044033
     15 H4           0.7700     2.7350    -0.0760 h4         1 82I       0.045800
     16 H5          -3.7120     0.5130     0.8480 h1         1 82I       0.057700
     17 H6          -3.5360     2.0150    -0.0980 h1         1 82I       0.057700
     18 H7          -3.6920     0.4490    -0.9390 h1         1 82I       0.057700
     19 H9           2.7530    -0.4320     0.0590 hn         1 82I       0.510000
@<TRIPOS>BOND
     1     1     2 1   
     2     1    12 1   
     3     1    13 1   
     4     1    14 1   
     5     2     3 1   
     6     2    19 1   
     7     3     4 1   
     8     3    10 2   
     9     4     5 2   
    10     4    15 1   
    11     5     6 1   
    12     6     7 1   
    13     6     8 1   
    14     7    16 1   
    15     7    17 1   
    16     7    18 1   
    17     8     9 2   
    18     8    10 1   
    19    10    11 1   
@<TRIPOS>SUBSTRUCTURE
     1 82I         1 TEMP              0 ****  ****    0 ROOT
