@<TRIPOS>MOLECULE
82J
   78    81     1     0     0
SMALL
abcg2


@<TRIPOS>ATOM
      1 C13         -0.5340     4.1120     1.0260 ca         1 82J      -0.052300
      2 C18          2.1290    -1.2010    -0.0850 ca         1 82J       0.020700
      3 C17          0.9370    -1.8090     0.6340 c3         1 82J       0.122300
      4 C19          3.2010    -1.9660    -0.5730 ca         1 82J      -0.276500
      5 C20          4.2250    -1.3710    -1.3000 ca         1 82J       0.005000
      6 C21          4.2280    -0.0080    -1.5280 ca         1 82J      -0.177000
      7 C22          3.1980     0.7720    -1.0170 ca         1 82J       0.045000
      8 C23          2.1570     0.1640    -0.3180 ca         1 82J      -0.142000
      9 C11         -0.2520     3.4040    -1.2540 ca         1 82J      -0.107000
     10 C12         -0.0510     4.3610    -0.2640 ca         1 82J      -0.071300
     11 C34         -1.5690     6.1280     2.1190 c3         1 82J      -0.089100
     12 C1          -5.9370    -2.6430     0.7030 ca         1 82J      -0.135000
     13 C2          -6.0690    -1.8390    -0.4300 ca         1 82J      -0.110600
     14 C3          -5.1750    -0.8030    -0.6520 ca         1 82J      -0.117000
     15 C4          -4.1150    -0.5550     0.2290 ca         1 82J       0.307000
     16 C5          -3.9840    -1.3780     1.3530 ca         1 82J      -0.161000
     17 C6          -4.8940    -2.3990     1.5810 ca         1 82J      -0.079000
     18 C8          -2.0030     0.6170     0.6430 c3         1 82J       0.197800
     19 C9          -1.0580    -0.5300     0.2350 c          1 82J       0.568100
     20 C10         -0.8810     2.1980    -0.9840 ca         1 82J      -0.100000
     21 C14         -1.1760     2.9050     1.2800 ca         1 82J      -0.086000
     22 O15         -1.2230    -1.0960    -0.8330 o          1 82J      -0.581100
     23 N16         -0.0370    -0.8330     1.0710 n          1 82J      -0.406800
     24 N24          3.1910     2.1420    -1.2650 ns         1 82J      -0.155000
     25 C25          0.7710     5.5790    -0.5860 c3         1 82J      -0.061100
     26 C26          2.7810     3.0870    -0.3690 c          1 82J       0.652100
     27 O27          2.8010     4.2870    -0.9490 os         1 82J      -0.460100
     28 O28          2.4740     2.8680     0.7770 o          1 82J      -0.513000
     29 C29          2.2460     5.3960    -0.2380 c3         1 82J       0.182600
     30 C30         -0.4210     5.1190     2.1380 c3         1 82J      -0.033100
     31 N32         -7.7550    -3.2350    -1.4440 nt         1 82J      -0.604000
     32 O33         -7.5080    -1.1230    -2.1800 o          1 82J      -0.608100
     33 C35          0.2060    -0.1550     2.3340 c3         1 82J       0.085300
     34 S36          3.3420    -3.7170    -0.2960 sy         1 82J       1.024500
     35 O37          4.4290    -4.2190    -1.1380 o          1 82J      -0.521500
     36 C38          3.8580    -3.8820     1.4320 c3         1 82J      -0.254700
     37 C39          3.9100    -5.3670     1.7670 c3         1 82J      -0.078600
     38 C40          5.1830    -3.1770     1.6670 c3         1 82J      -0.078600
     39 O41          2.0270    -4.3420    -0.4490 o          1 82J      -0.521500
     40 C42         -1.3410     1.9340     0.3010 ca         1 82J      -0.096300
     41 H53          0.4480    -2.5260    -0.0190 h1         1 82J       0.087700
     42 H52          1.2650    -2.3640     1.5150 h1         1 82J       0.087700
     43 H54          5.0420    -1.9650    -1.6830 ha         1 82J       0.146000
     44 H55          5.0380     0.4450    -2.0840 ha         1 82J       0.123000
     45 H56          1.3370     0.7730     0.0260 ha         1 82J       0.142000
     46 H50          0.1050     3.5980    -2.2590 ha         1 82J       0.118000
     47 H66         -1.5820     6.7050     1.1930 hc         1 82J       0.036700
     48 H67         -2.5320     5.6230     2.2050 hc         1 82J       0.036700
     49 H68         -1.4830     6.8300     2.9470 hc         1 82J       0.036700
     50 H43         -6.6420    -3.4330     0.9240 ha         1 82J       0.109000
     51 H44         -5.2880    -0.1750    -1.5270 ha         1 82J       0.136000
     52 H45         -3.1830    -1.2340     2.0660 ha         1 82J       0.108000
     53 H46         -4.7830    -3.0140     2.4640 ha         1 82J       0.110000
     54 H47         -3.2950     0.8550    -0.9590 hn         1 82J       0.481000
     55 H48         -2.1720     0.6080     1.7220 h1         1 82J       0.077700
     56 H49         -0.9930     1.4680    -1.7770 ha         1 82J       0.132000
     57 H51         -1.5390     2.7090     2.2840 ha         1 82J       0.112000
     58 H57          3.6230     2.4610    -2.1200 hn         1 82J       0.173000
     59 H58          0.6850     5.8140    -1.6490 hc         1 82J       0.061700
     60 H59          0.4190     6.4620    -0.0480 hc         1 82J       0.061700
     61 H61          2.8150     6.2660    -0.5610 h1         1 82J       0.067200
     62 H60          2.3920     5.2720     0.8350 h1         1 82J       0.067200
     63 H63         -0.4260     4.5930     3.0950 hc         1 82J       0.045700
     64 H62          0.5320     5.6490     2.0950 hc         1 82J       0.045700
     65 H64         -7.4110    -4.0140    -0.9110 hn         1 82J       0.313500
     66 H65         -8.4930    -3.4230    -2.1040 hn         1 82J       0.313500
     67 H70          0.6030     0.8530     2.2030 h1         1 82J       0.045700
     68 H69         -0.6940    -0.1020     2.9430 h1         1 82J       0.045700
     69 H71          0.9350    -0.7300     2.9000 h1         1 82J       0.045700
     70 H72          3.0680    -3.4020     2.0150 h1         1 82J       0.084700
     71 H73          4.6720    -5.8790     1.1800 hc         1 82J       0.053033
     72 H75          4.1720    -5.4760     2.8180 hc         1 82J       0.053033
     73 H74          2.9530    -5.8590     1.6100 hc         1 82J       0.053033
     74 H77          5.4370    -3.2620     2.7230 hc         1 82J       0.053033
     75 H78          5.9860    -3.6360     1.0920 hc         1 82J       0.053033
     76 H76          5.1390    -2.1160     1.4260 hc         1 82J       0.053033
     77 N7          -3.2780     0.5130    -0.0110 nu         1 82J      -0.924200
     78 C31         -7.1710    -2.0280    -1.4290 c          1 82J       0.616700
@<TRIPOS>BOND
     1     1    10 ar  
     2     1    21 ar  
     3     1    30 1   
     4     2     3 1   
     5     2     4 ar  
     6     2     8 ar  
     7     3    23 1   
     8     3    41 1   
     9     3    42 1   
    10     4     5 ar  
    11     4    34 1   
    12     5     6 ar  
    13     5    43 1   
    14     6     7 ar  
    15     6    44 1   
    16     7     8 ar  
    17     7    24 1   
    18     8    45 1   
    19     9    10 ar  
    20     9    20 ar  
    21     9    46 1   
    22    10    25 1   
    23    11    30 1   
    24    11    47 1   
    25    11    48 1   
    26    11    49 1   
    27    12    13 ar  
    28    12    17 ar  
    29    12    50 1   
    30    13    14 ar  
    31    13    78 1   
    32    14    15 ar  
    33    14    51 1   
    34    15    16 ar  
    35    15    77 1   
    36    16    17 ar  
    37    16    52 1   
    38    17    53 1   
    39    18    19 1   
    40    18    40 1   
    41    18    55 1   
    42    18    77 1   
    43    19    22 2   
    44    19    23 1   
    45    20    40 ar  
    46    20    56 1   
    47    21    40 ar  
    48    21    57 1   
    49    23    33 1   
    50    24    26 1   
    51    24    58 1   
    52    25    29 1   
    53    25    59 1   
    54    25    60 1   
    55    26    27 1   
    56    26    28 2   
    57    27    29 1   
    58    29    61 1   
    59    29    62 1   
    60    30    63 1   
    61    30    64 1   
    62    31    65 1   
    63    31    66 1   
    64    31    78 1   
    65    32    78 2   
    66    33    67 1   
    67    33    68 1   
    68    33    69 1   
    69    34    35 2   
    70    34    36 1   
    71    34    39 2   
    72    36    37 1   
    73    36    38 1   
    74    36    70 1   
    75    37    71 1   
    76    37    72 1   
    77    37    73 1   
    78    38    74 1   
    79    38    75 1   
    80    38    76 1   
    81    54    77 1   
@<TRIPOS>SUBSTRUCTURE
     1 82J         1 TEMP              0 ****  ****    0 ROOT
