@<TRIPOS>MOLECULE
82J
   78    81     1     0     0
SMALL
No Charge or Current Charge


@<TRIPOS>ATOM
      1 C13         -0.5690     4.1520     0.9820 ca         1 82J      -0.052300
      2 C18          2.2470    -1.2430    -0.0220 ca         1 82J       0.020700
      3 C17          1.0820    -1.8700     0.7750 c3         1 82J       0.122300
      4 C19          3.3000    -2.0240    -0.5870 ca         1 82J      -0.276500
      5 C20          4.3140    -1.3850    -1.3370 ca         1 82J       0.005000
      6 C21          4.3060     0.0040    -1.5220 ca         1 82J      -0.177000
      7 C22          3.3060     0.7870    -0.9380 ca         1 82J       0.045000
      8 C23          2.2840     0.1610    -0.2060 ca         1 82J      -0.142000
      9 C11         -0.2430     3.3030    -1.2820 ca         1 82J      -0.107000
     10 C12         -0.0530     4.3250    -0.3300 ca         1 82J      -0.071300
     11 C34         -1.6320     6.1920     2.0760 c3         1 82J      -0.089100
     12 C1          -6.1330    -2.6660     0.5380 ca         1 82J      -0.135000
     13 C2          -6.2180    -1.7900    -0.5720 ca         1 82J      -0.110600
     14 C3          -5.2850    -0.7290    -0.6620 ca         1 82J      -0.117000
     15 C4          -4.2960    -0.5430     0.3170 ca         1 82J       0.307000
     16 C5          -4.2330    -1.4210     1.4130 ca         1 82J      -0.161000
     17 C6          -5.1480    -2.4790     1.5210 ca         1 82J      -0.079000
     18 C8          -2.0230     0.5900     0.7710 c3         1 82J       0.197800
     19 C9          -1.0710    -0.6130     0.3760 c          1 82J       0.568100
     20 C10         -0.8980     2.1120    -0.9390 ca         1 82J      -0.100000
     21 C14         -1.2250     2.9490     1.3130 ca         1 82J      -0.086000
     22 O15         -1.2280    -1.2380    -0.6710 o          1 82J      -0.581100
     23 N16          0.0260    -0.9250     1.2250 n          1 82J      -0.406800
     24 N24          3.3230     2.1900    -1.1250 ns         1 82J      -0.155000
     25 C25          0.7380     5.5670    -0.7540 c3         1 82J      -0.061100
     26 C26          2.8530     3.1930    -0.3040 c          1 82J       0.652100
     27 O27          2.8780     4.3860    -0.9790 os         1 82J      -0.460100
     28 O28          2.4850     3.0430     0.8530 o          1 82J      -0.513000
     29 C29          2.2460     5.5390    -0.3790 c3         1 82J       0.182600
     30 C30         -0.4360     5.2210     2.0680 c3         1 82J      -0.033100
     31 N32         -8.1450    -2.9810    -1.5400 nt         1 82J      -0.604000
     32 O33         -7.3560    -1.2100    -2.6130 o          1 82J      -0.608100
     33 C35          0.1990    -0.2930     2.5540 c3         1 82J       0.085300
     34 S36          3.4470    -3.8260    -0.3590 sy         1 82J       1.024500
     35 O37          4.5040    -4.3300    -1.2470 o          1 82J      -0.521500
     36 C38          4.0650    -4.0030     1.3580 c3         1 82J      -0.254700
     37 C39          4.2230    -5.4940     1.7500 c3         1 82J      -0.078600
     38 C40          5.3750    -3.2050     1.5930 c3         1 82J      -0.078600
     39 O41          2.1080    -4.4280    -0.3840 o          1 82J      -0.521500
     40 C42         -1.3780     1.9170     0.3690 ca         1 82J      -0.096300
     41 H53          0.6020    -2.6380     0.1580 h1         1 82J       0.087700
     42 H52          1.4860    -2.3840     1.6560 h1         1 82J       0.087700
     43 H54          5.1260    -1.9590    -1.7810 ha         1 82J       0.146000
     44 H55          5.0980     0.4740    -2.1030 ha         1 82J       0.123000
     45 H56          1.5000     0.7840     0.2090 ha         1 82J       0.142000
     46 H50          0.1420     3.4220    -2.2930 ha         1 82J       0.118000
     47 H66         -1.7170     6.7140     1.1160 hc         1 82J       0.036700
     48 H67         -2.5680     5.6490     2.2570 hc         1 82J       0.036700
     49 H68         -1.5110     6.9420     2.8670 hc         1 82J       0.036700
     50 H43         -6.8260    -3.4950     0.6530 ha         1 82J       0.109000
     51 H44         -5.3280    -0.0430    -1.5040 ha         1 82J       0.136000
     52 H45         -3.4830    -1.2880     2.1860 ha         1 82J       0.108000
     53 H46         -5.0950    -3.1570     2.3710 ha         1 82J       0.110000
     54 H47         -3.5620     1.1310    -0.6110 hn         1 82J       0.481000
     55 H48         -2.1220     0.5730     1.8640 h1         1 82J       0.077700
     56 H49         -1.0130     1.3330    -1.6900 ha         1 82J       0.132000
     57 H51         -1.6080     2.8100     2.3220 ha         1 82J       0.112000
     58 H57          3.6680     2.5010    -2.0230 hn         1 82J       0.173000
     59 H58          0.6640     5.7030    -1.8400 hc         1 82J       0.061700
     60 H59          0.2890     6.4710    -0.3280 hc         1 82J       0.061700
     61 H61          2.7070     6.4560    -0.7690 h1         1 82J       0.067200
     62 H60          2.3780     5.5520     0.7110 h1         1 82J       0.067200
     63 H63         -0.3680     4.7450     3.0540 hc         1 82J       0.045700
     64 H62          0.4900     5.7940     1.9610 hc         1 82J       0.045700
     65 H64         -8.0910    -3.6100    -0.7550 hn         1 82J       0.313500
     66 H65         -8.8490    -3.1050    -2.2520 hn         1 82J       0.313500
     67 H70          0.2750     0.7960     2.4450 h1         1 82J       0.045700
     68 H69         -0.6550    -0.5380     3.1970 h1         1 82J       0.045700
     69 H71          1.1160    -0.6550     3.0360 h1         1 82J       0.045700
     70 H72          3.2890    -3.5690     1.9970 h1         1 82J       0.084700
     71 H73          4.9780    -5.9890     1.1260 hc         1 82J       0.053033
     72 H75          4.5340    -5.5880     2.7980 hc         1 82J       0.053033
     73 H74          3.2750    -6.0340     1.6340 hc         1 82J       0.053033
     74 H77          5.7100    -3.3120     2.6320 hc         1 82J       0.053033
     75 H78          6.1800    -3.5630     0.9390 hc         1 82J       0.053033
     76 H76          5.2280    -2.1340     1.4040 hc         1 82J       0.053033
     77 N7          -3.3950     0.5190     0.1890 nu         1 82J      -0.924200
     78 C31         -7.2690    -1.9580    -1.6520 c          1 82J       0.616700
@<TRIPOS>BOND
     1     1    10 ar  
     2     1    21 ar  
     3     1    30 1   
     4     2     3 1   
     5     2     4 ar  
     6     2     8 ar  
     7     3    23 1   
     8     3    41 1   
     9     3    42 1   
    10     4     5 ar  
    11     4    34 1   
    12     5     6 ar  
    13     5    43 1   
    14     6     7 ar  
    15     6    44 1   
    16     7     8 ar  
    17     7    24 1   
    18     8    45 1   
    19     9    10 ar  
    20     9    20 ar  
    21     9    46 1   
    22    10    25 1   
    23    11    30 1   
    24    11    47 1   
    25    11    48 1   
    26    11    49 1   
    27    12    13 ar  
    28    12    17 ar  
    29    12    50 1   
    30    13    14 ar  
    31    13    78 1   
    32    14    15 ar  
    33    14    51 1   
    34    15    16 ar  
    35    15    77 1   
    36    16    17 ar  
    37    16    52 1   
    38    17    53 1   
    39    18    19 1   
    40    18    40 1   
    41    18    55 1   
    42    18    77 1   
    43    19    22 2   
    44    19    23 1   
    45    20    40 ar  
    46    20    56 1   
    47    21    40 ar  
    48    21    57 1   
    49    23    33 1   
    50    24    26 1   
    51    24    58 1   
    52    25    29 1   
    53    25    59 1   
    54    25    60 1   
    55    26    27 1   
    56    26    28 2   
    57    27    29 1   
    58    29    61 1   
    59    29    62 1   
    60    30    63 1   
    61    30    64 1   
    62    31    65 1   
    63    31    66 1   
    64    31    78 1   
    65    32    78 2   
    66    33    67 1   
    67    33    68 1   
    68    33    69 1   
    69    34    35 2   
    70    34    36 1   
    71    34    39 2   
    72    36    37 1   
    73    36    38 1   
    74    36    70 1   
    75    37    71 1   
    76    37    72 1   
    77    37    73 1   
    78    38    74 1   
    79    38    75 1   
    80    38    76 1   
    81    54    77 1   
@<TRIPOS>SUBSTRUCTURE
     1 82J         1 TEMP              0 ****  ****    0 ROOT
