@<TRIPOS>MOLECULE
82K
   65    66     1     0     0
SMALL
No Charge or Current Charge


@<TRIPOS>ATOM
      1 C1          20.3210    -2.7680    34.6460 c          1 82K       0.717000
      2 C10         19.8110     3.3370    35.5740 ca         1 82K      -0.205000
      3 C11         20.3280     2.1220    35.0990 ca         1 82K      -0.072000
      4 C12         16.0250     2.5730    35.5490 c3         1 82K       0.166300
      5 C13         14.3130     3.3170    37.2220 c          1 82K       0.601700
      6 C14         14.0910     4.1340    38.4810 ca         1 82K      -0.109600
      7 C15         12.7740     4.4150    38.9050 ca         1 82K      -0.081500
      8 C16         12.5330     5.1890    40.0530 ca         1 82K      -0.073000
      9 C17         13.6060     5.7080    40.8070 ca         1 82K      -0.187300
     10 C18         14.9240     5.4190    40.3970 ca         1 82K      -0.073000
     11 C19         15.1660     4.6440    39.2490 ca         1 82K      -0.081500
     12 C2          19.9240    -1.4230    35.3040 c3         1 82K      -0.189700
     13 C20         13.3460     6.5470    42.0630 c3         1 82K       0.355300
     14 C21         18.6720     5.8690    36.4380 c3         1 82K       0.167600
     15 C22         17.7750     6.9560    37.0760 c3         1 82K      -0.074400
     16 C23         16.6940     7.5840    36.1580 c3         1 82K      -0.065400
     17 C24         15.5190     6.6440    35.7850 c3         1 82K      -0.073400
     18 C25         14.3720     7.3250    35.0020 c3         1 82K      -0.076400
     19 C26         13.5570     8.3460    35.8240 c3         1 82K      -0.088100
     20 C3          20.7440    -1.1400    36.5960 c3         1 82K      -0.048400
     21 C4          20.6130    -2.2350    37.6750 c3         1 82K      -0.077100
     22 C5          20.0250    -0.2660    34.2720 c3         1 82K      -0.021100
     23 C6          19.4650     1.0570    34.7870 ca         1 82K      -0.073300
     24 C7          18.0770     1.2230    34.9490 ca         1 82K      -0.060000
     25 C8          17.5430     2.4370    35.4280 ca         1 82K      -0.161300
     26 C9          18.4200     3.5040    35.7450 ca         1 82K       0.125100
     27 F30         14.3170     7.4650    42.2770 f          1 82K      -0.116000
     28 F31         13.2870     5.7710    43.1680 f          1 82K      -0.116000
     29 F32         12.1800     7.2290    41.9960 f          1 82K      -0.116000
     30 N27         15.6160     3.1540    36.8200 ns         1 82K      -0.480900
     31 O25         19.4660    -3.6370    34.5540 o          1 82K      -0.732500
     32 O26         21.4610    -2.9030    34.2270 o          1 82K      -0.732500
     33 O28         13.3880     2.8350    36.5810 o          1 82K      -0.613100
     34 O33         17.8880     4.6830    36.2330 os         1 82K      -0.357100
     35 H1          20.5090     4.1350    35.8100 ha         1 82K       0.105000
     36 H2          21.4030     2.0060    34.9780 ha         1 82K       0.114000
     37 H3          15.6550     3.2130    34.7370 h1         1 82K       0.056200
     38 H4          15.5500     1.5880    35.4460 h1         1 82K       0.056200
     39 H5          11.9250     4.0360    38.3390 ha         1 82K       0.135500
     40 H6          11.5050     5.3820    40.3520 ha         1 82K       0.128000
     41 H7          15.7710     5.7930    40.9680 ha         1 82K       0.128000
     42 H8          16.2000     4.4500    38.9750 ha         1 82K       0.135500
     43 H9          18.8710    -1.5040    35.6010 hc         1 82K       0.031700
     44 H10         19.0880     6.2350    35.4900 h1         1 82K       0.029700
     45 H11         19.5020     5.6610    37.1260 h1         1 82K       0.029700
     46 H12         18.4330     7.7650    37.4160 hc         1 82K       0.041700
     47 H13         17.3020     6.5530    37.9800 hc         1 82K       0.041700
     48 H14         17.1680     7.9550    35.2400 hc         1 82K       0.036200
     49 H15         16.2940     8.4620    36.6770 hc         1 82K       0.036200
     50 H16         15.1090     6.1960    36.6980 hc         1 82K       0.043200
     51 H17         15.8980     5.8220    35.1690 hc         1 82K       0.043200
     52 H18         13.6880     6.5450    34.6450 hc         1 82K       0.046200
     53 H19         14.7790     7.8160    34.1090 hc         1 82K       0.046200
     54 H20         12.7100     8.7150    35.2350 hc         1 82K       0.025367
     55 H21         13.1630     7.8830    36.7360 hc         1 82K       0.025367
     56 H22         14.1710     9.2080    36.1070 hc         1 82K       0.025367
     57 H23         21.8030    -1.0150    36.3400 hc         1 82K       0.018200
     58 H24         20.4130    -0.1910    37.0350 hc         1 82K       0.018200
     59 H25         21.1720    -1.9500    38.5740 hc         1 82K       0.021367
     60 H26         19.5630    -2.3790    37.9560 hc         1 82K       0.021367
     61 H27         21.0120    -3.1910    37.3170 hc         1 82K       0.021367
     62 H28         19.4810    -0.5570    33.3650 hc         1 82K       0.053700
     63 H29         21.0710    -0.1450    33.9660 hc         1 82K       0.053700
     64 H30         17.4110     0.4010    34.6970 ha         1 82K       0.128000
     65 H31         16.3310     3.6260    37.3570 hn         1 82K       0.326500
@<TRIPOS>BOND
     1     1    12 1   
     2     1    31 1   
     3     1    32 1   
     4     2     3 ar  
     5     2    26 ar  
     6     2    35 1   
     7     3    23 ar  
     8     3    36 1   
     9     4    25 1   
    10     4    30 1   
    11     4    37 1   
    12     4    38 1   
    13     5     6 1   
    14     5    30 1   
    15     5    33 2   
    16     6     7 ar  
    17     6    11 ar  
    18     7     8 ar  
    19     7    39 1   
    20     8     9 ar  
    21     8    40 1   
    22     9    10 ar  
    23     9    13 1   
    24    10    11 ar  
    25    10    41 1   
    26    11    42 1   
    27    12    20 1   
    28    12    22 1   
    29    12    43 1   
    30    13    27 1   
    31    13    28 1   
    32    13    29 1   
    33    14    15 1   
    34    14    34 1   
    35    14    44 1   
    36    14    45 1   
    37    15    16 1   
    38    15    46 1   
    39    15    47 1   
    40    16    17 1   
    41    16    48 1   
    42    16    49 1   
    43    17    18 1   
    44    17    50 1   
    45    17    51 1   
    46    18    19 1   
    47    18    52 1   
    48    18    53 1   
    49    19    54 1   
    50    19    55 1   
    51    19    56 1   
    52    20    21 1   
    53    20    57 1   
    54    20    58 1   
    55    21    59 1   
    56    21    60 1   
    57    21    61 1   
    58    22    23 1   
    59    22    62 1   
    60    22    63 1   
    61    23    24 ar  
    62    24    25 ar  
    63    24    64 1   
    64    25    26 ar  
    65    26    34 1   
    66    30    65 1   
@<TRIPOS>SUBSTRUCTURE
     1 82K         1 TEMP              0 ****  ****    0 ROOT
