@<TRIPOS>MOLECULE
82K
   65    66     1     0     0
SMALL
abcg2


@<TRIPOS>ATOM
      1 C1          19.8180    -2.5950    35.0230 c          1 82K       0.717000
      2 C10         19.8220     3.5360    35.4740 ca         1 82K      -0.205000
      3 C11         20.2390     2.2610    35.1020 ca         1 82K      -0.072000
      4 C12         16.0560     3.0560    35.5290 c3         1 82K       0.166300
      5 C13         14.4340     3.6870    37.2370 c          1 82K       0.601700
      6 C14         14.2090     3.9960    38.6840 ca         1 82K      -0.109600
      7 C15         12.9660     3.7050    39.2410 ca         1 82K      -0.081500
      8 C16         12.7080     3.9970    40.5680 ca         1 82K      -0.073000
      9 C17         13.6870     4.6080    41.3470 ca         1 82K      -0.187300
     10 C18         14.9200     4.9200    40.7950 ca         1 82K      -0.073000
     11 C19         15.1790     4.6110    39.4670 ca         1 82K      -0.081500
     12 C2          19.5840    -1.1880    35.6170 c3         1 82K      -0.189700
     13 C20         13.3680     4.9210    42.7770 c3         1 82K       0.355300
     14 C21         18.8380     6.1290    36.0410 c3         1 82K       0.167600
     15 C22         18.0380     7.3660    36.3920 c3         1 82K      -0.074400
     16 C23         16.8700     7.6690    35.4450 c3         1 82K      -0.065400
     17 C24         15.5330     7.1050    35.9220 c3         1 82K      -0.073400
     18 C25         14.4110     7.2090    34.8940 c3         1 82K      -0.076400
     19 C26         14.0400     8.6370    34.5150 c3         1 82K      -0.088100
     20 C3          20.4960    -0.8960    36.8030 c3         1 82K      -0.048400
     21 C4          20.3040    -1.8610    37.9650 c3         1 82K      -0.077100
     22 C5          19.7690    -0.1510    34.4950 c3         1 82K      -0.021100
     23 C6          19.3340     1.2340    34.8810 ca         1 82K      -0.073300
     24 C7          17.9800     1.5300    35.0440 ca         1 82K      -0.060000
     25 C8          17.5290     2.7870    35.4100 ca         1 82K      -0.161300
     26 C9          18.4680     3.8070    35.6340 ca         1 82K       0.125100
     27 F30         14.3650     5.5490    43.4050 f          1 82K      -0.116000
     28 F31         13.1010     3.8100    43.4780 f          1 82K      -0.116000
     29 F32         12.2830     5.7010    42.8770 f          1 82K      -0.116000
     30 N27         15.6720     3.3000    36.9070 ns         1 82K      -0.480900
     31 O25         18.8090    -3.2990    34.8140 o          1 82K      -0.732500
     32 O26         21.0020    -2.8980    34.7670 o          1 82K      -0.732500
     33 O28         13.5270     3.7920    36.4220 o          1 82K      -0.613100
     34 O33         17.9740     5.0060    35.9980 os         1 82K      -0.357100
     35 H1          20.5680     4.3030    35.6320 ha         1 82K       0.105000
     36 H2          21.3000     2.0760    34.9830 ha         1 82K       0.114000
     37 H3          15.7730     3.9210    34.9240 h1         1 82K       0.056200
     38 H4          15.5020     2.2010    35.1320 h1         1 82K       0.056200
     39 H5          12.1970     3.2400    38.6390 ha         1 82K       0.135500
     40 H6          11.7400     3.7490    40.9840 ha         1 82K       0.128000
     41 H7          15.6880     5.4100    41.3770 ha         1 82K       0.128000
     42 H8          16.1390     4.8810    39.0450 ha         1 82K       0.135500
     43 H9          18.5440    -1.1290    35.9580 hc         1 82K       0.031700
     44 H10         19.3210     6.2600    35.0650 h1         1 82K       0.029700
     45 H11         19.6300     5.9760    36.7830 h1         1 82K       0.029700
     46 H12         18.7520     8.1930    36.3830 hc         1 82K       0.041700
     47 H13         17.6770     7.2950    37.4220 hc         1 82K       0.041700
     48 H14         17.0940     7.2850    34.4430 hc         1 82K       0.036200
     49 H15         16.7800     8.7510    35.3320 hc         1 82K       0.036200
     50 H16         15.2370     7.6240    36.8400 hc         1 82K       0.043200
     51 H17         15.6590     6.0570    36.1970 hc         1 82K       0.043200
     52 H18         13.5260     6.7010    35.2860 hc         1 82K       0.046200
     53 H19         14.7000     6.6560    33.9940 hc         1 82K       0.046200
     54 H20         13.2030     8.6550    33.8160 hc         1 82K       0.025367
     55 H21         13.7460     9.2130    35.3950 hc         1 82K       0.025367
     56 H22         14.8700     9.1620    34.0410 hc         1 82K       0.025367
     57 H23         21.5370    -0.9230    36.4680 hc         1 82K       0.018200
     58 H24         20.3170     0.1240    37.1570 hc         1 82K       0.018200
     59 H25         20.9330    -1.5890    38.8140 hc         1 82K       0.021367
     60 H26         19.2690    -1.8610    38.3120 hc         1 82K       0.021367
     61 H27         20.5590    -2.8840    37.6850 hc         1 82K       0.021367
     62 H28         19.1920    -0.4720    33.6210 hc         1 82K       0.053700
     63 H29         20.8180    -0.1380    34.1870 hc         1 82K       0.053700
     64 H30         17.2450     0.7510    34.8650 ha         1 82K       0.128000
     65 H31         16.3440     3.0980    37.6300 hn         1 82K       0.326500
@<TRIPOS>BOND
     1     1    12 1   
     2     1    31 1   
     3     1    32 1   
     4     2     3 ar  
     5     2    26 ar  
     6     2    35 1   
     7     3    23 ar  
     8     3    36 1   
     9     4    25 1   
    10     4    30 1   
    11     4    37 1   
    12     4    38 1   
    13     5     6 1   
    14     5    30 1   
    15     5    33 2   
    16     6     7 ar  
    17     6    11 ar  
    18     7     8 ar  
    19     7    39 1   
    20     8     9 ar  
    21     8    40 1   
    22     9    10 ar  
    23     9    13 1   
    24    10    11 ar  
    25    10    41 1   
    26    11    42 1   
    27    12    20 1   
    28    12    22 1   
    29    12    43 1   
    30    13    27 1   
    31    13    28 1   
    32    13    29 1   
    33    14    15 1   
    34    14    34 1   
    35    14    44 1   
    36    14    45 1   
    37    15    16 1   
    38    15    46 1   
    39    15    47 1   
    40    16    17 1   
    41    16    48 1   
    42    16    49 1   
    43    17    18 1   
    44    17    50 1   
    45    17    51 1   
    46    18    19 1   
    47    18    52 1   
    48    18    53 1   
    49    19    54 1   
    50    19    55 1   
    51    19    56 1   
    52    20    21 1   
    53    20    57 1   
    54    20    58 1   
    55    21    59 1   
    56    21    60 1   
    57    21    61 1   
    58    22    23 1   
    59    22    62 1   
    60    22    63 1   
    61    23    24 ar  
    62    24    25 ar  
    63    24    64 1   
    64    25    26 ar  
    65    26    34 1   
    66    30    65 1   
@<TRIPOS>SUBSTRUCTURE
     1 82K         1 TEMP              0 ****  ****    0 ROOT
