@<TRIPOS>MOLECULE
82M
   45    47     1     0     0
SMALL
No Charge or Current Charge


@<TRIPOS>ATOM
      1 C10          3.5400     1.9990     2.0190 c3         1 82M       0.143800
      2 N12          1.7950     1.4620     0.2930 ns         1 82M      -0.498900
      3 C13          1.1280     2.3450    -0.5260 c          1 82M       0.642700
      4 C15         -0.3250     2.0670    -0.6500 cc         1 82M      -0.237600
      5 C17         -2.4820     2.3070    -1.3330 cd         1 82M      -0.163000
      6 C20         -3.6180     0.3930    -0.1630 ca         1 82M       0.022000
      7 C21         -4.9360     0.8270    -0.4280 ca         1 82M      -0.133000
      8 C22         -6.0340     0.0160    -0.1010 ca         1 82M       0.188000
      9 C26         -3.4320    -0.8690     0.4420 ca         1 82M      -0.129000
     10 C02          4.1450    -2.0500     0.4070 cc         1 82M       0.302300
     11 C03          5.3130    -1.7270    -0.2420 cd         1 82M      -0.241300
     12 C04          6.3890    -2.6550    -0.7270 c3         1 82M       0.239900
     13 C07          3.9020     0.1450     0.3450 cd         1 82M       0.384700
     14 C09          3.2490     1.4940     0.5810 c3         1 82M       0.078400
     15 C16         -1.1730     2.8240    -1.4230 cd         1 82M      -0.100000
     16 C18         -2.4550     1.2260    -0.4930 cc         1 82M      -0.117000
     17 C23         -5.8370    -1.2420     0.4970 ca         1 82M       0.064000
     18 C25         -4.5330    -1.6820     0.7680 ca         1 82M      -0.072000
     19 F27         -7.2860     0.4570    -0.3650 f          1 82M      -0.158000
     20 N08          3.3410    -0.9920     0.7470 nc         1 82M      -0.659000
     21 N11          3.0510     3.3770     2.2660 n8         1 82M      -0.989200
     22 N19         -1.1310     1.0660    -0.0790 na         1 82M      -0.087000
     23 O05          6.0690    -3.1280    -2.0370 oh         1 82M      -0.654000
     24 O14          1.6940     3.2640    -1.1000 o          1 82M      -0.574100
     25 S06          5.4550     0.0080    -0.4680 ss         1 82M       0.043600
     26 Cl24        -7.2070    -2.2720     0.9130 cl         1 82M      -0.164000
     27 H101         3.0620     1.3230     2.7430 h1         1 82M       0.038700
     28 H102         4.6240     1.9790     2.2010 h1         1 82M       0.038700
     29 H121         1.2560     0.7080     0.6940 hn         1 82M       0.313500
     30 H171        -3.3460     2.7040    -1.8560 ha         1 82M       0.139000
     31 H211        -5.1240     1.7970    -0.8780 ha         1 82M       0.143000
     32 H261        -2.4310    -1.2340     0.6560 ha         1 82M       0.114000
     33 H013         2.6730    -3.4400     1.1650 hc         1 82M       0.049367
     34 H012         3.7200    -4.0940    -0.1060 hc         1 82M       0.049367
     35 H011         4.3530    -3.8670     1.5360 hc         1 82M       0.049367
     36 H042         7.3490    -2.1210    -0.7370 h1         1 82M       0.033700
     37 H041         6.4840    -3.4970    -0.0270 h1         1 82M       0.033700
     38 H091         3.7280     2.1970    -0.1130 h1         1 82M       0.112700
     39 H161        -0.8810     3.6860    -2.0180 ha         1 82M       0.152000
     40 H251        -4.3740    -2.6540     1.2310 ha         1 82M       0.132000
     41 H111         2.0350     3.3970     2.1210 hn         1 82M       0.398000
     42 H112         3.1590     3.6010     3.2630 hn         1 82M       0.398000
     43 H191        -0.8140     0.3350     0.5480 hn         1 82M       0.345000
     44 H051         6.8080    -3.7160    -2.3110 ho         1 82M       0.448000
     45 C01          3.6960    -3.4370     0.7710 c3         1 82M      -0.119400
@<TRIPOS>BOND
     1     1    14 1   
     2     1    21 1   
     3     1    27 1   
     4     1    28 1   
     5     2     3 1   
     6     2    14 1   
     7     2    29 1   
     8     3     4 1   
     9     3    24 2   
    10     4    15 2   
    11     4    22 1   
    12     5    15 1   
    13     5    16 2   
    14     5    30 1   
    15     6     7 ar  
    16     6     9 ar  
    17     6    16 1   
    18     7     8 ar  
    19     7    31 1   
    20     8    17 ar  
    21     8    19 1   
    22     9    18 ar  
    23     9    32 1   
    24    10    11 2   
    25    10    20 1   
    26    10    45 1   
    27    11    12 1   
    28    11    25 1   
    29    12    23 1   
    30    12    36 1   
    31    12    37 1   
    32    13    14 1   
    33    13    20 2   
    34    13    25 1   
    35    14    38 1   
    36    15    39 1   
    37    16    22 1   
    38    17    18 ar  
    39    17    26 1   
    40    18    40 1   
    41    21    41 1   
    42    21    42 1   
    43    22    43 1   
    44    23    44 1   
    45    33    45 1   
    46    34    45 1   
    47    35    45 1   
@<TRIPOS>SUBSTRUCTURE
     1 82M         1 TEMP              0 ****  ****    0 ROOT
