@<TRIPOS>MOLECULE
82M
   45    47     1     0     0
SMALL
abcg2


@<TRIPOS>ATOM
      1 C10          3.0750     1.5130     2.2540 c3         1 82M       0.143800
      2 N12          1.6190     1.2010     0.3230 ns         1 82M      -0.498900
      3 C13          1.1290     1.8220    -0.7780 c          1 82M       0.642700
      4 C15         -0.2910     1.5870    -1.0640 cc         1 82M      -0.237600
      5 C17         -2.2940     1.4380    -2.0620 cd         1 82M      -0.163000
      6 C20         -3.6010     0.5320    -0.0380 ca         1 82M       0.022000
      7 C21         -4.8730     0.8570    -0.5150 ca         1 82M      -0.133000
      8 C22         -5.9890     0.4040     0.1510 ca         1 82M       0.188000
      9 C26         -3.4970    -0.2500     1.1140 ca         1 82M      -0.129000
     10 C02          4.2050    -2.0490    -0.0180 cc         1 82M       0.302300
     11 C03          5.4450    -1.5530    -0.2860 cd         1 82M      -0.241300
     12 C04          6.7100    -2.2450    -0.6590 c3         1 82M       0.239900
     13 C07          3.7730     0.0870     0.3360 cd         1 82M       0.384700
     14 C09          2.9980     1.3120     0.7370 c3         1 82M       0.078400
     15 C16         -0.9530     1.8060    -2.2540 cd         1 82M      -0.100000
     16 C18         -2.4250     1.0090    -0.7520 cc         1 82M      -0.117000
     17 C23         -5.8870    -0.3670     1.2990 ca         1 82M       0.064000
     18 C25         -4.6290    -0.6910     1.7800 ca         1 82M      -0.072000
     19 F27         -7.2000     0.7230    -0.3070 f          1 82M      -0.158000
     20 N08          3.2760    -1.1040     0.3380 nc         1 82M      -0.659000
     21 N11          2.4260     2.7530     2.6290 n8         1 82M      -0.989200
     22 N19         -1.2000     1.0940    -0.1710 na         1 82M      -0.087000
     23 O05          7.3310    -1.5100    -1.6880 oh         1 82M      -0.654000
     24 O14          1.7990     2.5490    -1.4970 o          1 82M      -0.574100
     25 S06          5.4350     0.1620    -0.1010 ss         1 82M       0.043600
     26 CL24        -7.3150    -0.9000     2.0980 cl         1 82M      -0.164000
     27 H101         2.6700     0.6170     2.7450 h1         1 82M       0.038700
     28 H102         4.1290     1.5710     2.5330 h1         1 82M       0.038700
     29 H121         1.1170     0.4080     0.6920 hn         1 82M       0.313500
     30 H171        -3.0770     1.4560    -2.8030 ha         1 82M       0.139000
     31 H211        -5.0010     1.4740    -1.3940 ha         1 82M       0.143000
     32 H261        -2.5310    -0.5430     1.5020 ha         1 82M       0.114000
     33 H013         2.9090    -3.6000    -0.7060 hc         1 82M       0.049367
     34 H012         4.5750    -4.1230    -0.4570 hc         1 82M       0.049367
     35 H011         3.5210    -3.8450     0.9240 hc         1 82M       0.049367
     36 H042         7.3590    -2.3180     0.2220 h1         1 82M       0.033700
     37 H041         6.4790    -3.2730    -0.9650 h1         1 82M       0.033700
     38 H091         3.4250     2.1920     0.2550 h1         1 82M       0.112700
     39 H161        -0.5040     2.1660    -3.1660 ha         1 82M       0.152000
     40 H251        -4.5330    -1.2960     2.6710 ha         1 82M       0.132000
     41 H111         1.4250     2.6630     2.5140 hn         1 82M       0.398000
     42 H112         2.5780     2.9220     3.6150 hn         1 82M       0.398000
     43 H191        -1.0340     0.9770     0.8160 hn         1 82M       0.345000
     44 H051         8.2370    -1.8220    -1.7720 ho         1 82M       0.448000
     45 C01          3.7870    -3.4800    -0.0690 c3         1 82M      -0.119400
@<TRIPOS>BOND
     1     1    14 1   
     2     1    21 1   
     3     1    27 1   
     4     1    28 1   
     5     2     3 1   
     6     2    14 1   
     7     2    29 1   
     8     3     4 1   
     9     3    24 2   
    10     4    15 2   
    11     4    22 1   
    12     5    15 1   
    13     5    16 2   
    14     5    30 1   
    15     6     7 ar  
    16     6     9 ar  
    17     6    16 1   
    18     7     8 ar  
    19     7    31 1   
    20     8    17 ar  
    21     8    19 1   
    22     9    18 ar  
    23     9    32 1   
    24    10    11 2   
    25    10    20 1   
    26    10    45 1   
    27    11    12 1   
    28    11    25 1   
    29    12    23 1   
    30    12    36 1   
    31    12    37 1   
    32    13    14 1   
    33    13    20 2   
    34    13    25 1   
    35    14    38 1   
    36    15    39 1   
    37    16    22 1   
    38    17    18 ar  
    39    17    26 1   
    40    18    40 1   
    41    21    41 1   
    42    21    42 1   
    43    22    43 1   
    44    23    44 1   
    45    33    45 1   
    46    34    45 1   
    47    35    45 1   
@<TRIPOS>SUBSTRUCTURE
     1 82M         1 TEMP              0 ****  ****    0 ROOT
