@<TRIPOS>MOLECULE
82O
   74    78     1     0     0
SMALL
No Charge or Current Charge


@<TRIPOS>ATOM
      1 C3           0.0420     2.6600     0.1290 cc         1 82O       0.381800
      2 C5           1.8390     1.3800    -0.0390 cc         1 82O       0.420800
      3 C6           0.6130     1.2470     2.1750 cx         1 82O      -0.004700
      4 N1           0.8270     1.7590     0.8120 na         1 82O      -0.333000
      5 N2           0.5900     2.8700    -1.0570 nd         1 82O      -0.367000
      6 C7           0.4020     2.0950     3.4080 cx         1 82O      -0.123900
      7 C8           1.6510     1.2650     3.2740 cx         1 82O      -0.123900
      8 C12          2.8840     0.3180     0.1640 cy         1 82O      -0.120000
      9 C13         -1.3350    -1.4550    -0.2540 ca         1 82O      -0.026000
     10 C14         -1.4780    -2.2290     0.9180 ca         1 82O      -0.138000
     11 C15         -0.9320    -3.5220     0.9900 ca         1 82O      -0.091000
     12 O27         -3.7010     6.5580    -0.1130 o          1 82O      -0.600100
     13 C28         -5.6510     5.1830     0.1170 c3         1 82O      -0.177100
     14 N24         -3.2780     4.3180     0.1050 n          1 82O      -0.430800
     15 C25         -3.7350     2.9140     0.2540 c5         1 82O       0.122000
     16 C21         -2.4250     2.1570    -0.0770 c5         1 82O      -0.171700
     17 C18         -0.6370    -1.9990    -1.3580 ca         1 82O      -0.116300
     18 C19         -0.4300    -1.1900    -2.6370 c3         1 82O      -0.058800
     19 C17         -0.0990    -3.2980    -1.2770 ca         1 82O      -0.088000
     20 C16         -0.2390    -4.0620    -0.1060 ca         1 82O      -0.097300
     21 C20          0.3690    -5.4540    -0.0170 c3         1 82O      -0.042800
     22 C23         -1.8010     4.4580     0.0490 c5         1 82O       0.114000
     23 C22         -1.3490     3.0720     0.5790 c5         1 82O      -0.103000
     24 N4           1.7200     2.0890    -1.1520 nd         1 82O      -0.369000
     25 C31          2.5380    -1.0540     0.8470 cy         1 82O      -0.076900
     26 C30          3.7320    -1.6500     0.0330 cy         1 82O      -0.077700
     27 C29          3.3740    -0.5670    -1.0380 cy         1 82O      -0.076900
     28 C32          3.6590    -3.1380    -0.3580 c3         1 82O      -0.063400
     29 C33          4.6770    -3.5810    -1.4430 c3         1 82O      -0.058700
     30 C35          6.1470    -3.4420    -0.9820 c3         1 82O      -0.087100
     31 C34          4.3810    -5.0230    -1.9160 c3         1 82O      -0.087100
     32 H1           0.0180     0.3370     2.0820 h1         1 82O       0.109700
     33 H2           0.5040     3.1730     3.3130 hc         1 82O       0.086700
     34 H3          -0.3540     1.7700     4.1190 hc         1 82O       0.086700
     35 H4           1.7420     0.3790     3.8980 hc         1 82O       0.086700
     36 H5           2.5860     1.7860     3.0830 hc         1 82O       0.086700
     37 H6           3.7020     0.8490     0.6650 hc         1 82O       0.071700
     38 H7          -2.0040    -1.8480     1.7870 ha         1 82O       0.141000
     39 H8          -1.0440    -4.1020     1.9030 ha         1 82O       0.113000
     40 H9          -6.2280     6.1140     0.0960 hc         1 82O       0.061367
     41 H10         -5.9560     4.5120    -0.6930 hc         1 82O       0.061367
     42 H11         -5.8700     4.5920     1.0140 hc         1 82O       0.061367
     43 H12         -4.0770     2.7280     1.2810 h1         1 82O       0.061700
     44 H13         -4.5430     2.6500    -0.4410 h1         1 82O       0.061700
     45 H14         -2.2620     2.1000    -1.1610 hc         1 82O       0.088700
     46 H15         -1.6380     0.2990    -1.2600 hn         1 82O       0.165000
     47 H16          0.1080    -0.2560    -2.4320 hc         1 82O       0.049367
     48 H17          0.1550    -1.7430    -3.3810 hc         1 82O       0.049367
     49 H18         -1.3890    -0.9330    -3.1020 hc         1 82O       0.049367
     50 H19          0.4440    -3.7130    -2.1230 ha         1 82O       0.112000
     51 H20         -0.2790    -6.1360     0.5460 hc         1 82O       0.042033
     52 H21          0.5230    -5.8910    -1.0110 hc         1 82O       0.042033
     53 H22          1.3420    -5.4220     0.4880 hc         1 82O       0.042033
     54 H23         -1.4740     4.6390    -0.9840 h1         1 82O       0.073200
     55 H24         -1.4320     5.2790     0.6800 h1         1 82O       0.073200
     56 H25         -1.4380     3.0580     1.6700 hc         1 82O       0.080700
     57 H26          2.6440    -1.0950     1.9350 hc         1 82O       0.061200
     58 H27          1.5540    -1.4580     0.5810 hc         1 82O       0.061200
     59 H28          4.6980    -1.4700     0.5220 hc         1 82O       0.054700
     60 H29          2.5830    -0.8630    -1.7380 hc         1 82O       0.061200
     61 H30          4.2150    -0.1680    -1.6150 hc         1 82O       0.061200
     62 H31          3.7920    -3.7580     0.5370 hc         1 82O       0.042200
     63 H32          2.6500    -3.3530    -0.7270 hc         1 82O       0.042200
     64 H33          4.5430    -2.9270    -2.3140 hc         1 82O       0.047700
     65 H34          6.4020    -2.3960    -0.7770 hc         1 82O       0.031867
     66 H35          6.3290    -4.0270    -0.0720 hc         1 82O       0.031867
     67 H36          6.8320    -3.8010    -1.7600 hc         1 82O       0.031867
     68 H37          3.3570    -5.1040    -2.3000 hc         1 82O       0.031867
     69 H38          5.0660    -5.3150    -2.7210 hc         1 82O       0.031867
     70 H39          4.4960    -5.7360    -1.0910 hc         1 82O       0.031867
     71 C9          -2.3800     0.7500     0.5650 c          1 82O       0.614100
     72 C26         -4.1440     5.4250     0.0240 c          1 82O       0.609100
     73 O11         -2.7060     0.4670     1.7110 o          1 82O      -0.583100
     74 N10         -1.8240    -0.1230    -0.3600 ns         1 82O      -0.145000
@<TRIPOS>BOND
     1     1     4 1   
     2     1     5 2   
     3     1    23 1   
     4     2     4 1   
     5     2     8 1   
     6     2    24 2   
     7     3     4 1   
     8     3     6 1   
     9     3     7 1   
    10     3    32 1   
    11     5    24 1   
    12     6     7 1   
    13     6    33 1   
    14     6    34 1   
    15     7    35 1   
    16     7    36 1   
    17     8    25 1   
    18     8    27 1   
    19     8    37 1   
    20     9    10 ar  
    21     9    17 ar  
    22     9    74 1   
    23    10    11 ar  
    24    10    38 1   
    25    11    20 ar  
    26    11    39 1   
    27    12    72 2   
    28    13    40 1   
    29    13    41 1   
    30    13    42 1   
    31    13    72 1   
    32    14    15 1   
    33    14    22 1   
    34    14    72 1   
    35    15    16 1   
    36    15    43 1   
    37    15    44 1   
    38    16    23 1   
    39    16    45 1   
    40    16    71 1   
    41    17    18 1   
    42    17    19 ar  
    43    18    47 1   
    44    18    48 1   
    45    18    49 1   
    46    19    20 ar  
    47    19    50 1   
    48    20    21 1   
    49    21    51 1   
    50    21    52 1   
    51    21    53 1   
    52    22    23 1   
    53    22    54 1   
    54    22    55 1   
    55    23    56 1   
    56    25    26 1   
    57    25    57 1   
    58    25    58 1   
    59    26    27 1   
    60    26    28 1   
    61    26    59 1   
    62    27    60 1   
    63    27    61 1   
    64    28    29 1   
    65    28    62 1   
    66    28    63 1   
    67    29    30 1   
    68    29    31 1   
    69    29    64 1   
    70    30    65 1   
    71    30    66 1   
    72    30    67 1   
    73    31    68 1   
    74    31    69 1   
    75    31    70 1   
    76    46    74 1   
    77    71    73 2   
    78    71    74 1   
@<TRIPOS>SUBSTRUCTURE
     1 82O         1 TEMP              0 ****  ****    0 ROOT
