@<TRIPOS>MOLECULE
82O
   74    78     1     0     0
SMALL
bcc


@<TRIPOS>ATOM
      1 C3          -0.0710     2.3640     0.0570 cc         1 82O       0.381800
      2 C5           1.7630     1.2220    -0.0360 cc         1 82O       0.420800
      3 C6           0.5840     1.1990     2.1740 cx         1 82O      -0.034000
      4 N1           0.7650     1.5990     0.8110 na         1 82O      -0.303700
      5 N2           0.4010     2.4650    -1.1510 nd         1 82O      -0.367000
      6 C7           0.4330     2.2560     3.2230 cx         1 82O      -0.123900
      7 C8           1.6800     1.4400     3.1590 cx         1 82O      -0.123900
      8 C12          2.8870     0.3320     0.3310 cy         1 82O      -0.120000
      9 C13         -1.2820    -1.4710    -0.3150 ca         1 82O       0.066600
     10 C14         -1.4360    -2.1680     0.8810 ca         1 82O      -0.156000
     11 C15         -0.8870    -3.4350     1.0240 ca         1 82O      -0.109000
     12 O27         -3.4340     6.4720     0.1650 o          1 82O      -0.600100
     13 C28         -5.4580     5.1860     0.2250 c3         1 82O      -0.177100
     14 N24         -3.2290     4.2380     0.1850 n          1 82O      -0.497800
     15 C25         -3.7670     2.8810     0.1730 c5         1 82O       0.122000
     16 C21         -2.5490     2.0520    -0.1900 c5         1 82O      -0.171700
     17 C18         -0.5790    -2.0620    -1.3780 ca         1 82O      -0.116300
     18 C19         -0.3600    -1.3350    -2.6740 c3         1 82O      -0.058800
     19 C17         -0.0570    -3.3350    -1.2010 ca         1 82O      -0.106000
     20 C16         -0.1840    -4.0420    -0.0080 ca         1 82O      -0.097300
     21 C20          0.4590    -5.3870     0.1590 c3         1 82O      -0.042800
     22 C23         -1.7740     4.2730     0.1740 c5         1 82O       0.114000
     23 C22         -1.4090     2.8300     0.5040 c5         1 82O      -0.103000
     24 N4           1.5530     1.7480    -1.2100 nd         1 82O      -0.369000
     25 C31          2.5860    -1.0410     0.9700 cy         1 82O      -0.076900
     26 C30          3.7330    -1.6290     0.1240 cy         1 82O      -0.077700
     27 C29          3.6110    -0.4070    -0.8090 cy         1 82O      -0.076900
     28 C32          3.5390    -3.0120    -0.4590 c3         1 82O      -0.063400
     29 C33          4.5640    -3.4300    -1.5120 c3         1 82O      -0.058700
     30 C35          5.9850    -3.4650    -0.9580 c3         1 82O      -0.087100
     31 C34          4.1810    -4.7880    -2.0930 c3         1 82O      -0.087100
     32 H1           0.0010     0.2910     2.2860 h1         1 82O       0.109700
     33 H2           0.5000     3.2910     2.9090 hc         1 82O       0.086700
     34 H3          -0.2840     2.0710     4.0120 hc         1 82O       0.086700
     35 H4           1.8420     0.6730     3.9050 hc         1 82O       0.086700
     36 H5           2.5800     1.9300     2.8120 hc         1 82O       0.086700
     37 H6           3.6080     0.8790     0.9460 hc         1 82O       0.071700
     38 H7          -1.9760    -1.7310     1.7060 ha         1 82O       0.159000
     39 H8          -1.0130    -3.9520     1.9680 ha         1 82O       0.131000
     40 H9          -5.9410     6.1490     0.3690 hc         1 82O       0.061367
     41 H10         -5.8150     4.7590    -0.7140 hc         1 82O       0.061367
     42 H11         -5.7730     4.5140     1.0240 hc         1 82O       0.061367
     43 H12         -4.1650     2.5990     1.1520 h1         1 82O       0.061700
     44 H13         -4.5610     2.7680    -0.5650 h1         1 82O       0.061700
     45 H14         -2.3900     2.1110    -1.2710 hc         1 82O       0.088700
     46 H15         -1.4290     0.2780    -1.3580 hn         1 82O       0.331500
     47 H16          0.2740    -0.4530    -2.5420 hc         1 82O       0.049367
     48 H17          0.1410    -1.9770    -3.3940 hc         1 82O       0.049367
     49 H18         -1.2960    -1.0050    -3.1310 hc         1 82O       0.049367
     50 H19          0.4800    -3.7900    -2.0260 ha         1 82O       0.130000
     51 H20          0.0070    -5.9500     0.9750 hc         1 82O       0.042033
     52 H21          0.3820    -5.9870    -0.7480 hc         1 82O       0.042033
     53 H22          1.5220    -5.2800     0.3830 hc         1 82O       0.042033
     54 H23         -1.3880     4.5650    -0.8060 h1         1 82O       0.073200
     55 H24         -1.3840     4.9710     0.9150 h1         1 82O       0.073200
     56 H25         -1.5060     2.6830     1.5820 hc         1 82O       0.080700
     57 H26          2.6570    -1.1190     2.0550 hc         1 82O       0.061200
     58 H27          1.6160    -1.4320     0.6490 hc         1 82O       0.061200
     59 H28          4.6680    -1.5720     0.6900 hc         1 82O       0.054700
     60 H29          2.9290    -0.6140    -1.6370 hc         1 82O       0.061200
     61 H30          4.5210     0.0410    -1.2060 hc         1 82O       0.061200
     62 H31          3.5350    -3.7510     0.3530 hc         1 82O       0.042200
     63 H32          2.5400    -3.0520    -0.9060 hc         1 82O       0.042200
     64 H33          4.5340    -2.6950    -2.3260 hc         1 82O       0.047700
     65 H34          6.3150    -2.4860    -0.6100 hc         1 82O       0.031867
     66 H35          6.0580    -4.1600    -0.1170 hc         1 82O       0.031867
     67 H36          6.6940    -3.7960    -1.7200 hc         1 82O       0.031867
     68 H37          3.1730    -4.7680    -2.5130 hc         1 82O       0.031867
     69 H38          4.8650    -5.0960    -2.8850 hc         1 82O       0.031867
     70 H39          4.1980    -5.5600    -1.3200 hc         1 82O       0.031867
     71 C9          -2.5420     0.6110     0.2700 c          1 82O       0.681100
     72 C26         -3.9620     5.3670     0.1920 c          1 82O       0.676100
     73 O11         -3.1030     0.2390     1.2840 o          1 82O      -0.583100
     74 N10         -1.7610    -0.1690    -0.5180 ns         1 82O      -0.471100
@<TRIPOS>BOND
     1     1     4 1   
     2     1     5 2   
     3     1    23 1   
     4     2     4 1   
     5     2     8 1   
     6     2    24 2   
     7     3     4 1   
     8     3     6 1   
     9     3     7 1   
    10     3    32 1   
    11     5    24 1   
    12     6     7 1   
    13     6    33 1   
    14     6    34 1   
    15     7    35 1   
    16     7    36 1   
    17     8    25 1   
    18     8    27 1   
    19     8    37 1   
    20     9    10 ar  
    21     9    17 ar  
    22     9    74 1   
    23    10    11 ar  
    24    10    38 1   
    25    11    20 ar  
    26    11    39 1   
    27    12    72 2   
    28    13    40 1   
    29    13    41 1   
    30    13    42 1   
    31    13    72 1   
    32    14    15 1   
    33    14    22 1   
    34    14    72 1   
    35    15    16 1   
    36    15    43 1   
    37    15    44 1   
    38    16    23 1   
    39    16    45 1   
    40    16    71 1   
    41    17    18 1   
    42    17    19 ar  
    43    18    47 1   
    44    18    48 1   
    45    18    49 1   
    46    19    20 ar  
    47    19    50 1   
    48    20    21 1   
    49    21    51 1   
    50    21    52 1   
    51    21    53 1   
    52    22    23 1   
    53    22    54 1   
    54    22    55 1   
    55    23    56 1   
    56    25    26 1   
    57    25    57 1   
    58    25    58 1   
    59    26    27 1   
    60    26    28 1   
    61    26    59 1   
    62    27    60 1   
    63    27    61 1   
    64    28    29 1   
    65    28    62 1   
    66    28    63 1   
    67    29    30 1   
    68    29    31 1   
    69    29    64 1   
    70    30    65 1   
    71    30    66 1   
    72    30    67 1   
    73    31    68 1   
    74    31    69 1   
    75    31    70 1   
    76    46    74 1   
    77    71    73 2   
    78    71    74 1   
@<TRIPOS>SUBSTRUCTURE
     1 82O         1 TEMP              0 ****  ****    0 ROOT
