@<TRIPOS>MOLECULE
82Q
   49    52     1     0     0
SMALL
abcg2


@<TRIPOS>ATOM
      1 C4         -17.1720   -32.4370    18.6820 ca         1 82Q      -0.093000
      2 C14        -14.8960   -26.6190    14.7460 c5         1 82Q      -0.036400
      3 C5         -16.5400   -33.5190    18.1250 ca         1 82Q      -0.107000
      4 C6         -15.3360   -33.3530    17.3990 ca         1 82Q      -0.029000
      5 C11        -14.7830   -32.0440    17.2430 ca         1 82Q      -0.047000
      6 C7         -14.6700   -34.4530    16.8050 ca         1 82Q      -0.094000
      7 C8         -13.5210   -34.2740    16.0790 ca         1 82Q      -0.108000
      8 C9         -12.9860   -32.9790    15.9090 ca         1 82Q      -0.105000
      9 C10        -13.6010   -31.8910    16.4760 ca         1 82Q      -0.104000
     10 C12        -14.6260   -27.3570    17.0300 c5         1 82Q       0.030700
     11 C13        -13.9230   -27.3780    15.6620 c5         1 82Q      -0.080400
     12 N2         -15.3910   -26.1210    16.9930 n          1 82Q      -0.406800
     13 C3         -16.6220   -31.1460    18.5550 ca         1 82Q      -0.092000
     14 C1         -15.5360   -28.5790    17.1970 c          1 82Q       0.597100
     15 C15        -14.3140   -26.1650    13.4300 ca         1 82Q      -0.070300
     16 C16        -13.4780   -27.0160    12.7010 ca         1 82Q      -0.108500
     17 C17        -12.9590   -26.6290    11.4710 ca         1 82Q      -0.105500
     18 C18        -13.2680   -25.3790    10.9410 ca         1 82Q      -0.109000
     19 C19        -14.1020   -24.5250    11.6530 ca         1 82Q      -0.105500
     20 C2         -15.4570   -30.9500    17.8560 ca         1 82Q      -0.036000
     21 C20        -14.6200   -24.9160    12.8850 ca         1 82Q      -0.108500
     22 C21        -15.4130   -25.5050    15.6630 c5         1 82Q       0.117000
     23 C22        -16.0080   -25.6570    18.0990 c          1 82Q       0.609100
     24 C23        -16.7770   -24.3670    17.9590 c3         1 82Q      -0.169100
     25 O1         -16.6980   -28.5910    16.8160 o          1 82Q      -0.573100
     26 O2         -15.9420   -26.2690    19.1710 o          1 82Q      -0.610100
     27 H1         -18.0920   -32.5680    19.2360 ha         1 82Q       0.119000
     28 H3         -16.9510   -34.5150    18.2300 ha         1 82Q       0.115000
     29 H4         -15.0920   -35.4430    16.9320 ha         1 82Q       0.114000
     30 H5         -13.0230   -35.1230    15.6290 ha         1 82Q       0.114000
     31 H6         -12.0860   -32.8440    15.3220 ha         1 82Q       0.111000
     32 H7         -13.1870   -30.9030    16.3240 ha         1 82Q       0.104000
     33 H8         -13.9090   -27.3360    17.8520 h1         1 82Q       0.079700
     34 H9         -13.7140   -28.3920    15.3260 hc         1 82Q       0.060200
     35 H10        -12.9770   -26.8390    15.7320 hc         1 82Q       0.060200
     36 H12        -17.1130   -30.3000    19.0160 ha         1 82Q       0.137000
     37 H13        -13.2290   -27.9920    13.0970 ha         1 82Q       0.110000
     38 H14        -12.3110   -27.3050    10.9270 ha         1 82Q       0.114000
     39 H15        -12.8620   -25.0760     9.9840 ha         1 82Q       0.115000
     40 H16        -14.3520   -23.5510    11.2520 ha         1 82Q       0.114000
     41 H17        -15.2710   -24.2360    13.4180 ha         1 82Q       0.110000
     42 H18        -14.7500   -24.6350    15.6360 h1         1 82Q       0.051200
     43 H19        -16.4180   -25.1810    15.3990 h1         1 82Q       0.051200
     44 H20        -17.1200   -24.0530    18.9410 hc         1 82Q       0.062033
     45 H21        -16.1620   -23.5830    17.5160 hc         1 82Q       0.062033
     46 H22        -17.6420   -24.5130    17.3060 hc         1 82Q       0.062033
     47 N1         -14.9030   -29.6490    17.7420 ns         1 82Q      -0.163000
     48 H2         -15.7380   -27.2850    14.5340 hc         1 82Q       0.087700
     49 H11        -13.9230   -29.5440    17.9590 hn         1 82Q       0.153000
@<TRIPOS>BOND
     1     1     3 ar  
     2     1    13 ar  
     3     1    27 1   
     4     2    11 1   
     5     2    15 1   
     6     2    22 1   
     7     2    48 1   
     8     3     4 ar  
     9     3    28 1   
    10     4     5 ar  
    11     4     6 ar  
    12     5     9 ar  
    13     5    20 ar  
    14     6     7 ar  
    15     6    29 1   
    16     7     8 ar  
    17     7    30 1   
    18     8     9 ar  
    19     8    31 1   
    20     9    32 1   
    21    10    11 1   
    22    10    12 1   
    23    10    14 1   
    24    10    33 1   
    25    11    34 1   
    26    11    35 1   
    27    12    22 1   
    28    12    23 1   
    29    13    20 ar  
    30    13    36 1   
    31    14    25 2   
    32    14    47 1   
    33    15    16 ar  
    34    15    21 ar  
    35    16    17 ar  
    36    16    37 1   
    37    17    18 ar  
    38    17    38 1   
    39    18    19 ar  
    40    18    39 1   
    41    19    21 ar  
    42    19    40 1   
    43    20    47 1   
    44    21    41 1   
    45    22    42 1   
    46    22    43 1   
    47    23    24 1   
    48    23    26 2   
    49    24    44 1   
    50    24    45 1   
    51    24    46 1   
    52    47    49 1   
@<TRIPOS>SUBSTRUCTURE
     1 82Q         1 TEMP              0 ****  ****    0 ROOT
