@<TRIPOS>MOLECULE
82Q
   49    52     1     0     0
SMALL
No Charge or Current Charge


@<TRIPOS>ATOM
      1 C4         -17.4690   -32.6530    18.0940 ca         1 82Q      -0.093000
      2 C14        -15.1370   -26.5800    14.6770 c5         1 82Q      -0.036400
      3 C5         -16.6210   -33.7530    17.9120 ca         1 82Q      -0.107000
      4 C6         -15.2910   -33.5570    17.5040 ca         1 82Q      -0.029000
      5 C11        -14.8020   -32.2470    17.2700 ca         1 82Q      -0.047000
      6 C7         -14.4500   -34.6720    17.3300 ca         1 82Q      -0.094000
      7 C8         -13.1190   -34.4980    16.9210 ca         1 82Q      -0.108000
      8 C9         -12.6250   -33.2060    16.6840 ca         1 82Q      -0.105000
      9 C10        -13.4570   -32.0880    16.8550 ca         1 82Q      -0.104000
     10 C12        -14.7090   -27.4900    16.8870 c5         1 82Q       0.030700
     11 C13        -14.1220   -27.4820    15.4410 c5         1 82Q      -0.080400
     12 N2         -15.2350   -26.0990    16.9850 n          1 82Q      -0.406800
     13 C3         -16.9950   -31.3510    17.8660 ca         1 82Q      -0.092000
     14 C1         -15.8030   -28.5980    17.0210 c          1 82Q       0.597100
     15 C15        -14.5360   -26.0430    13.3590 ca         1 82Q      -0.070300
     16 C16        -13.5260   -26.7400    12.6510 ca         1 82Q      -0.108500
     17 C17        -13.0120   -26.2390    11.4430 ca         1 82Q      -0.105500
     18 C18        -13.5060   -25.0410    10.9090 ca         1 82Q      -0.109000
     19 C19        -14.5240   -24.3500    11.5800 ca         1 82Q      -0.105500
     20 C2         -15.6640   -31.1310    17.4460 ca         1 82Q      -0.036000
     21 C20        -15.0390   -24.8500    12.7890 ca         1 82Q      -0.108500
     22 C21        -15.2960   -25.4000    15.6820 c5         1 82Q       0.117000
     23 C22        -15.6000   -25.5160    18.2140 c          1 82Q       0.609100
     24 C23        -16.1200   -24.0780    18.2170 c3         1 82Q      -0.169100
     25 O1         -17.0200   -28.4390    16.9650 o          1 82Q      -0.573100
     26 O2         -15.4990   -26.1470    19.2580 o          1 82Q      -0.610100
     27 H1         -18.4960   -32.8070    18.4180 ha         1 82Q       0.119000
     28 H3         -16.9980   -34.7570    18.0930 ha         1 82Q       0.115000
     29 H4         -14.8270   -35.6760    17.5110 ha         1 82Q       0.114000
     30 H5         -12.4720   -35.3620    16.7880 ha         1 82Q       0.114000
     31 H6         -11.5930   -33.0710    16.3650 ha         1 82Q       0.111000
     32 H7         -13.0390   -31.1050    16.6570 ha         1 82Q       0.104000
     33 H8         -13.9270   -27.6790    17.6350 h1         1 82Q       0.079700
     34 H9         -14.0330   -28.4880    15.0120 hc         1 82Q       0.060200
     35 H10        -13.1180   -27.0400    15.4440 hc         1 82Q       0.060200
     36 H12        -17.6760   -30.5240    18.0380 ha         1 82Q       0.137000
     37 H13        -13.1300   -27.6810    13.0230 ha         1 82Q       0.110000
     38 H14        -12.2320   -26.7860    10.9180 ha         1 82Q       0.114000
     39 H15        -13.1090   -24.6550     9.9720 ha         1 82Q       0.115000
     40 H16        -14.9210   -23.4270    11.1620 ha         1 82Q       0.114000
     41 H17        -15.8410   -24.3010    13.2760 ha         1 82Q       0.110000
     42 H18        -14.4720   -24.6780    15.6000 h1         1 82Q       0.051200
     43 H19        -16.2460   -24.8700    15.5360 h1         1 82Q       0.051200
     44 H20        -16.3300   -23.7100    19.2280 hc         1 82Q       0.062033
     45 H21        -15.4060   -23.4320    17.6930 hc         1 82Q       0.062033
     46 H22        -17.0100   -24.0190    17.5820 hc         1 82Q       0.062033
     47 N1         -15.1630   -29.8160    17.2220 ns         1 82Q      -0.163000
     48 H2         -16.0920   -27.0940    14.5130 hc         1 82Q       0.087700
     49 H11        -14.1530   -29.7600    17.2120 hn         1 82Q       0.153000
@<TRIPOS>BOND
     1     1     3 ar  
     2     1    13 ar  
     3     1    27 1   
     4     2    11 1   
     5     2    15 1   
     6     2    22 1   
     7     2    48 1   
     8     3     4 ar  
     9     3    28 1   
    10     4     5 ar  
    11     4     6 ar  
    12     5     9 ar  
    13     5    20 ar  
    14     6     7 ar  
    15     6    29 1   
    16     7     8 ar  
    17     7    30 1   
    18     8     9 ar  
    19     8    31 1   
    20     9    32 1   
    21    10    11 1   
    22    10    12 1   
    23    10    14 1   
    24    10    33 1   
    25    11    34 1   
    26    11    35 1   
    27    12    22 1   
    28    12    23 1   
    29    13    20 ar  
    30    13    36 1   
    31    14    25 2   
    32    14    47 1   
    33    15    16 ar  
    34    15    21 ar  
    35    16    17 ar  
    36    16    37 1   
    37    17    18 ar  
    38    17    38 1   
    39    18    19 ar  
    40    18    39 1   
    41    19    21 ar  
    42    19    40 1   
    43    20    47 1   
    44    21    41 1   
    45    22    42 1   
    46    22    43 1   
    47    23    24 1   
    48    23    26 2   
    49    24    44 1   
    50    24    45 1   
    51    24    46 1   
    52    47    49 1   
@<TRIPOS>SUBSTRUCTURE
     1 82Q         1 TEMP              0 ****  ****    0 ROOT
