@<TRIPOS>MOLECULE
82R
   75    80     1     0     0
SMALL
No Charge or Current Charge


@<TRIPOS>ATOM
      1 C5           0.0000     0.0000     0.0000 c5         1 82R      -0.027000
      2 C6           0.0000     0.0000     0.0000 c5         1 82R      -0.067700
      3 O1           0.0000     0.0000     0.0000 os         1 82R      -0.466000
      4 C7           0.0000     0.0000     0.0000 c5         1 82R      -0.078700
      5 C8           0.0000     0.0000     0.0000 c6         1 82R      -0.045700
      6 C9           0.0000     0.0010     0.0000 c6         1 82R      -0.043700
      7 C10          0.0000     0.0000     0.0000 c5         1 82R       0.157300
      8 C11      221790212263552449380504700775873950227423894053411102217413146842899919746565775111488246672103654159607596018532073754470284578103887495019305775238186821922365055937253303229019408853292711128993909829975777336411274870784.0000     0.0000     0.0000 c6         1 82R      -0.029000
      9 C12          0.0000     0.0000     0.0000 c5         1 82R      -0.070400
     10 C13          0.0000     0.0000     0.0000 c6         1 82R       0.182300
     11 C14          0.0000     0.0000     0.0000 c6         1 82R      -0.107400
     12 C15          0.0000     0.0000     0.0000 c5         1 82R      -0.058700
     13 O2           0.0000     0.0000     0.0000 oh         1 82R      -0.656000
     14 C27          0.0000     0.0000     0.0000 c6         1 82R       0.172300
     15 C25          0.0000     0.0000     0.0000 c6         1 82R      -0.111400
     16 C21          0.0000     0.0000     0.0000 c6         1 82R      -0.064400
     17 C23          0.0000     0.0000     0.0000 c3         1 82R      -0.082100
     18 C20          0.0000     0.0000     0.0000 c3         1 82R      -0.079100
     19 C22          0.0000     0.0000     0.0000 c6         1 82R      -0.068400
     20 C16          0.0000     0.0000     0.0000 c6         1 82R      -0.054700
     21 C19          0.0000     0.0000     0.0000 c6         1 82R      -0.068400
     22 C17          0.0000     0.0000     0.0000 c6         1 82R      -0.070400
     23 C24          0.0000     0.0000     0.0000 c3         1 82R      -0.072100
     24 C18          0.0000     0.0000     0.0000 c5         1 82R       0.381000
     25 C26          0.0000     0.0000     0.0000 c6         1 82R      -0.082400
     26 C28          0.0000     0.0000     0.0000 c6         1 82R      -0.069400
     27 C30          0.0000     0.0000     0.0000 c6         1 82R      -0.098700
     28 C31          0.0000     0.0000     0.0000 c3         1 82R      -0.085100
     29 C29          0.0000     0.0000     0.0000 c6         1 82R       0.164600
     30 O3           0.0000     0.0000     0.0000 os         1 82R      -0.473000
     31 H1           0.0000     0.0000     0.0000 hc         1 82R       0.041700
     32 H2           0.0000     0.0000     0.0000 hc         1 82R       0.062700
     33 H3           0.0000     0.0000     0.0000 hc         1 82R       0.057700
     34 H4           0.0000     0.0000     0.0000 hc         1 82R       0.040700
     35 H5           0.0000     0.0000     0.0000 h1         1 82R       0.050700
     36 H6           0.0000     0.0000     0.0000 hc         1 82R       0.056200
     37 H7           0.0000     0.0000     0.0000 hc         1 82R       0.056200
     38 H8           0.0000     0.0000     0.0000 h1         1 82R       0.025700
     39 H9           0.0000     0.0000     0.0000 hc         1 82R       0.046200
     40 H10          0.0000     0.0000     0.0000 hc         1 82R       0.046200
     41 H11          0.0000     0.0000     0.0000 hc         1 82R       0.066700
     42 H12          0.0000     0.0000     0.0000 ho         1 82R       0.439000
     43 H14          0.0000     0.0000     0.0000 h1         1 82R       0.024700
     44 H15          0.0000     0.0000     0.0000 hc         1 82R       0.045200
     45 H16          0.0000     0.0000     0.0000 hc         1 82R       0.045200
     46 H17          0.0000     0.0000     0.0000 hc         1 82R       0.039200
     47 H18          0.0000     0.0000     0.0000 hc         1 82R       0.039200
     48 H19          0.0000     0.0000     0.0000 hc         1 82R       0.034700
     49 H20          0.0000     0.0000     0.0000 hc         1 82R       0.034700
     50 H21          0.0000     0.0000     0.0000 hc         1 82R       0.034700
     51 H22          0.0000     0.0000     0.0000 hc         1 82R       0.040367
     52 H23          0.0000     0.0000     0.0000 hc         1 82R       0.040367
     53 H24          0.0000     0.0000     0.0000 hc         1 82R       0.040367
     54 H25          0.0000     0.0000     0.0000 hc         1 82R       0.053700
     55 H26          0.0000     0.0000     0.0000 hc         1 82R       0.053700
     56 H27          0.0000     0.0000     0.0000 hc         1 82R       0.041700
     57 H28          0.0000     0.0000     0.0000 hc         1 82R       0.042200
     58 H29          0.0000     0.0000     0.0000 hc         1 82R       0.042200
     59 H30          0.0000     0.0000     0.0000 hc         1 82R       0.040700
     60 H31          0.0000     0.0000     0.0000 hc         1 82R       0.040700
     61 H32          0.0000     0.0000     0.0000 hc         1 82R       0.039367
     62 H33          0.0000     0.0000     0.0000 hc         1 82R       0.039367
     63 H34          0.0000     0.0000     0.0000 hc         1 82R       0.039367
     64 H35          0.0000     0.0000     0.0000 hc         1 82R       0.055700
     65 H36          0.0000     0.0000     0.0000 hc         1 82R       0.055700
     66 H37          0.0000     0.0000     0.0000 hc         1 82R       0.047200
     67 H38          0.0000     0.0000     0.0000 hc         1 82R       0.047200
     68 H39          0.0000     0.0000     0.0000 hc         1 82R       0.054700
     69 H40          0.0000     0.0000     0.0000 hc         1 82R       0.034033
     70 H41          0.0000     0.0000     0.0000 hc         1 82R       0.034033
     71 H42          0.0000     0.0000     0.0000 hc         1 82R       0.034033
     72 H43          0.0000     0.0000     0.0000 h1         1 82R       0.046200
     73 H44          0.0000     0.0000     0.0000 h1         1 82R       0.046200
     74 O4           0.0000     0.0000     0.0000 oh         1 82R      -0.660000
     75 H13          0.0000     0.0000     0.0000 ho         1 82R       0.440000
@<TRIPOS>BOND
     1     1     2 1   
     2     1     4 1   
     3     1    10 1   
     4     1    18 1   
     5     2     5 1   
     6     2     9 1   
     7     2    31 1   
     8     3     7 1   
     9     3    24 1   
    10     4     7 1   
    11     4    12 1   
    12     4    32 1   
    13     5     6 1   
    14     5    22 1   
    15     5    33 1   
    16     6     8 1   
    17     6    11 1   
    18     6    34 1   
    19     7     9 1   
    20     7    35 1   
    21     8    16 1   
    22     8    17 1   
    23     8    20 1   
    24     9    36 1   
    25     9    37 1   
    26    10    11 1   
    27    10    13 1   
    28    10    38 1   
    29    11    39 1   
    30    11    40 1   
    31    12    23 1   
    32    12    24 1   
    33    12    41 1   
    34    13    42 1   
    35    14    15 1   
    36    14    19 1   
    37    14    43 1   
    38    14    74 1   
    39    15    16 1   
    40    15    44 1   
    41    15    45 1   
    42    16    46 1   
    43    16    47 1   
    44    17    48 1   
    45    17    49 1   
    46    17    50 1   
    47    18    51 1   
    48    18    52 1   
    49    18    53 1   
    50    19    20 1   
    51    19    54 1   
    52    19    55 1   
    53    20    21 1   
    54    20    56 1   
    55    21    22 1   
    56    21    57 1   
    57    21    58 1   
    58    22    59 1   
    59    22    60 1   
    60    23    61 1   
    61    23    62 1   
    62    23    63 1   
    63    24    25 1   
    64    24    30 1   
    65    25    26 1   
    66    25    64 1   
    67    25    65 1   
    68    26    27 1   
    69    26    66 1   
    70    26    67 1   
    71    27    28 1   
    72    27    29 1   
    73    27    68 1   
    74    28    69 1   
    75    28    70 1   
    76    28    71 1   
    77    29    30 1   
    78    29    72 1   
    79    29    73 1   
    80    74    75 1   
@<TRIPOS>SUBSTRUCTURE
     1 82R         1 TEMP              0 ****  ****    0 ROOT
