@<TRIPOS>MOLECULE
82R
   75    80     1     0     0
SMALL
bcc


@<TRIPOS>ATOM
      1 C5           0.4640     0.7290     0.2490 c5         1 82R      -0.027000
      2 C6          -0.1620    -0.5050    -0.4260 c5         1 82R      -0.067700
      3 O1           3.2740    -1.0040     0.2140 os         1 82R      -0.419600
      4 C7           1.8430     0.7500    -0.4520 c5         1 82R      -0.078700
      5 C8          -1.5630    -0.8440     0.0560 c6         1 82R      -0.045700
      6 C9          -2.4740     0.3740    -0.1950 c6         1 82R      -0.043700
      7 C10          2.1920    -0.7430    -0.6650 c5         1 82R       0.134100
      8 C11         -3.9380     0.1110     0.2470 c6         1 82R      -0.029000
      9 C12          0.9390    -1.5610    -0.3420 c5         1 82R      -0.070400
     10 C13         -0.4320     1.9130    -0.0860 c6         1 82R       0.159100
     11 C14         -1.8700     1.6630     0.3790 c6         1 82R      -0.107400
     12 C15          3.0660     1.3200     0.2780 c5         1 82R      -0.058700
     13 O2           0.1050     3.0890     0.4850 oh         1 82R      -0.593800
     14 C27         -6.7670    -0.2180    -0.7100 c6         1 82R       0.149100
     15 C25         -6.3220     1.0330     0.0350 c6         1 82R      -0.111400
     16 C21         -4.8310     1.2980    -0.1520 c6         1 82R      -0.064400
     17 C23         -4.0240    -0.1020     1.7630 c3         1 82R      -0.082100
     18 C20          0.5990     0.5460     1.7640 c3         1 82R      -0.079100
     19 C22         -5.9180    -1.4120    -0.3090 c6         1 82R      -0.068400
     20 C16         -4.4360    -1.1270    -0.5360 c6         1 82R      -0.054700
     21 C19         -3.5680    -2.3560    -0.2920 c6         1 82R      -0.068400
     22 C17         -2.1120    -2.0840    -0.6450 c6         1 82R      -0.070400
     23 C24          3.5780     2.6370    -0.2800 c3         1 82R      -0.072100
     24 C18          4.0720     0.1520     0.2550 c5         1 82R       0.334600
     25 C26          4.9780     0.0790     1.4760 c6         1 82R      -0.082400
     26 C28          6.0380    -1.0070     1.3350 c6         1 82R      -0.069400
     27 C30          6.7940    -0.8520     0.0180 c6         1 82R      -0.098700
     28 C31          7.7720    -1.9930    -0.2180 c3         1 82R      -0.085100
     29 C29          5.7870    -0.7670    -1.1190 c6         1 82R       0.141400
     30 O3           4.8330     0.2610    -0.9230 os         1 82R      -0.426600
     31 H1          -0.2600    -0.2520    -1.4940 hc         1 82R       0.041700
     32 H2           1.7180     1.2410    -1.4240 hc         1 82R       0.062700
     33 H3          -1.5270    -1.0500     1.1310 hc         1 82R       0.057700
     34 H4          -2.5130     0.5040    -1.2880 hc         1 82R       0.040700
     35 H5           2.5030    -0.9260    -1.7000 h1         1 82R       0.050700
     36 H6           1.0010    -1.9980     0.6580 hc         1 82R       0.056200
     37 H7           0.7910    -2.3810    -1.0450 hc         1 82R       0.056200
     38 H8          -0.4450     2.0050    -1.1850 h1         1 82R       0.025700
     39 H9          -2.4760     2.5190     0.0670 hc         1 82R       0.046200
     40 H10         -1.8990     1.6510     1.4720 hc         1 82R       0.046200
     41 H11          2.8250     1.4860     1.3310 hc         1 82R       0.066700
     42 H12         -0.4680     3.8250     0.2490 ho         1 82R       0.400000
     43 H14         -6.6090    -0.0430    -1.7870 h1         1 82R       0.024700
     44 H15         -6.8890     1.8990    -0.3230 hc         1 82R       0.045200
     45 H16         -6.5660     0.9240     1.0960 hc         1 82R       0.045200
     46 H17         -4.5580     2.1910     0.4150 hc         1 82R       0.039200
     47 H18         -4.6410     1.5380    -1.2060 hc         1 82R       0.039200
     48 H19         -3.6870     0.7850     2.3010 hc         1 82R       0.034700
     49 H20         -5.0430    -0.3000     2.0950 hc         1 82R       0.034700
     50 H21         -3.4170    -0.9380     2.1110 hc         1 82R       0.034700
     51 H22          0.9390     1.4620     2.2470 hc         1 82R       0.040367
     52 H23         -0.3440     0.2730     2.2350 hc         1 82R       0.040367
     53 H24          1.3160    -0.2350     2.0150 hc         1 82R       0.040367
     54 H25         -6.1090    -1.6690     0.7380 hc         1 82R       0.053700
     55 H26         -6.2110    -2.2850    -0.9020 hc         1 82R       0.053700
     56 H27         -4.3250    -0.8710    -1.6010 hc         1 82R       0.041700
     57 H28         -3.6490    -2.6810     0.7500 hc         1 82R       0.042200
     58 H29         -3.9450    -3.1890    -0.8940 hc         1 82R       0.042200
     59 H30         -2.0250    -1.9420    -1.7300 hc         1 82R       0.040700
     60 H31         -1.4990    -2.9540    -0.3970 hc         1 82R       0.040700
     61 H32          2.8170     3.4060    -0.1450 hc         1 82R       0.039367
     62 H33          4.4800     2.9700     0.2350 hc         1 82R       0.039367
     63 H34          3.8010     2.5740    -1.3450 hc         1 82R       0.039367
     64 H35          5.4650     1.0520     1.5940 hc         1 82R       0.055700
     65 H36          4.3680    -0.0760     2.3690 hc         1 82R       0.055700
     66 H37          6.7320    -0.9660     2.1790 hc         1 82R       0.047200
     67 H38          5.5700    -1.9970     1.3660 hc         1 82R       0.047200
     68 H39          7.3550     0.0910     0.0490 hc         1 82R       0.054700
     69 H40          7.2520    -2.9530    -0.2600 hc         1 82R       0.034033
     70 H41          8.3180    -1.8710    -1.1550 hc         1 82R       0.034033
     71 H42          8.5060    -2.0520     0.5870 hc         1 82R       0.034033
     72 H43          6.2880    -0.5390    -2.0630 h1         1 82R       0.046200
     73 H44          5.2930    -1.7410    -1.2400 h1         1 82R       0.046200
     74 O4          -8.1250    -0.5350    -0.4650 oh         1 82R      -0.597800
     75 H13         -8.6600     0.2180    -0.7340 ho         1 82R       0.401000
@<TRIPOS>BOND
     1     1     2 1   
     2     1     4 1   
     3     1    10 1   
     4     1    18 1   
     5     2     5 1   
     6     2     9 1   
     7     2    31 1   
     8     3     7 1   
     9     3    24 1   
    10     4     7 1   
    11     4    12 1   
    12     4    32 1   
    13     5     6 1   
    14     5    22 1   
    15     5    33 1   
    16     6     8 1   
    17     6    11 1   
    18     6    34 1   
    19     7     9 1   
    20     7    35 1   
    21     8    16 1   
    22     8    17 1   
    23     8    20 1   
    24     9    36 1   
    25     9    37 1   
    26    10    11 1   
    27    10    13 1   
    28    10    38 1   
    29    11    39 1   
    30    11    40 1   
    31    12    23 1   
    32    12    24 1   
    33    12    41 1   
    34    13    42 1   
    35    14    15 1   
    36    14    19 1   
    37    14    43 1   
    38    14    74 1   
    39    15    16 1   
    40    15    44 1   
    41    15    45 1   
    42    16    46 1   
    43    16    47 1   
    44    17    48 1   
    45    17    49 1   
    46    17    50 1   
    47    18    51 1   
    48    18    52 1   
    49    18    53 1   
    50    19    20 1   
    51    19    54 1   
    52    19    55 1   
    53    20    21 1   
    54    20    56 1   
    55    21    22 1   
    56    21    57 1   
    57    21    58 1   
    58    22    59 1   
    59    22    60 1   
    60    23    61 1   
    61    23    62 1   
    62    23    63 1   
    63    24    25 1   
    64    24    30 1   
    65    25    26 1   
    66    25    64 1   
    67    25    65 1   
    68    26    27 1   
    69    26    66 1   
    70    26    67 1   
    71    27    28 1   
    72    27    29 1   
    73    27    68 1   
    74    28    69 1   
    75    28    70 1   
    76    28    71 1   
    77    29    30 1   
    78    29    72 1   
    79    29    73 1   
    80    74    75 1   
@<TRIPOS>SUBSTRUCTURE
     1 82R         1 TEMP              0 ****  ****    0 ROOT
