@<TRIPOS>MOLECULE
82S
   28    29     1     0     0
SMALL
No Charge or Current Charge


@<TRIPOS>ATOM
      1 C2           0.2790     0.8480    -0.5900 c5         1 82S       0.124300
      2 C3          -0.3160     1.6690     0.6000 c5         1 82S      -0.074400
      3 C4          -1.6790     0.9410     0.8720 c5         1 82S      -0.067700
      4 C5          -2.5790     1.2780    -0.3660 c5         1 82S      -0.078400
      5 C6          -1.9660     0.3810    -1.4920 c5         1 82S      -0.082400
      6 C7          -1.3340    -0.5720     0.6740 c5         1 82S      -0.041000
      7 C8          -2.5680    -1.5350     0.7550 c3         1 82S      -0.080100
      8 C9          -0.3300    -1.1490     1.7270 c3         1 82S      -0.080100
      9 C10         -0.2370    -1.5710    -1.5430 c3         1 82S      -0.072100
     10 Br1          2.1990     0.2980    -0.2910 br         1 82S      -0.294000
     11 C1          -0.7590    -0.3310    -0.7740 c5         1 82S      -0.043000
     12 H1           0.3640     1.4600    -1.4980 h1         1 82S       0.075700
     13 H2           0.3360     1.6470     1.4790 hc         1 82S       0.058200
     14 H3          -0.4430     2.7270     0.3450 hc         1 82S       0.058200
     15 H4          -2.1340     1.1940     1.8370 hc         1 82S       0.069700
     16 H5          -3.6300     1.0250    -0.1830 hc         1 82S       0.045700
     17 H6          -2.5610     2.3430    -0.6260 hc         1 82S       0.045700
     18 H7          -2.7010    -0.3390    -1.8700 hc         1 82S       0.045700
     19 H8          -1.6540     0.9680    -2.3640 hc         1 82S       0.045700
     20 H9          -3.3850    -1.2790     0.0740 hc         1 82S       0.036367
     21 H10         -2.2770    -2.5670     0.5230 hc         1 82S       0.036367
     22 H11         -2.9960    -1.5370     1.7640 hc         1 82S       0.036367
     23 H12         -0.7970    -1.2100     2.7180 hc         1 82S       0.036367
     24 H13         -0.0130    -2.1630     1.4550 hc         1 82S       0.036367
     25 H14          0.5780    -0.5570     1.8570 hc         1 82S       0.036367
     26 H15          0.5540    -2.0890    -0.9890 hc         1 82S       0.042033
     27 H16         -1.0410    -2.2950    -1.7180 hc         1 82S       0.042033
     28 H17          0.1680    -1.2840    -2.5200 hc         1 82S       0.042033
@<TRIPOS>BOND
     1     1     2 1   
     2     1    10 1   
     3     1    11 1   
     4     1    12 1   
     5     2     3 1   
     6     2    13 1   
     7     2    14 1   
     8     3     4 1   
     9     3     6 1   
    10     3    15 1   
    11     4     5 1   
    12     4    16 1   
    13     4    17 1   
    14     5    11 1   
    15     5    18 1   
    16     5    19 1   
    17     6     7 1   
    18     6     8 1   
    19     6    11 1   
    20     7    20 1   
    21     7    21 1   
    22     7    22 1   
    23     8    23 1   
    24     8    24 1   
    25     8    25 1   
    26     9    11 1   
    27     9    26 1   
    28     9    27 1   
    29     9    28 1   
@<TRIPOS>SUBSTRUCTURE
     1 82S         1 TEMP              0 ****  ****    0 ROOT
