@<TRIPOS>MOLECULE
82S
   28    29     1     0     0
SMALL
abcg2


@<TRIPOS>ATOM
      1 C2           0.2520     0.8150    -0.5820 c5         1 82S       0.124300
      2 C3          -0.3180     1.6260     0.5970 c5         1 82S      -0.074400
      3 C4          -1.6640     0.9350     0.8650 c5         1 82S      -0.067700
      4 C5          -2.5740     1.2330    -0.3320 c5         1 82S      -0.078400
      5 C6          -1.9390     0.3780    -1.4530 c5         1 82S      -0.082400
      6 C7          -1.3210    -0.5570     0.6730 c5         1 82S      -0.041000
      7 C8          -2.5340    -1.4880     0.7070 c3         1 82S      -0.080100
      8 C9          -0.3390    -1.1030     1.7110 c3         1 82S      -0.080100
      9 C10         -0.2720    -1.5560    -1.5240 c3         1 82S      -0.072100
     10 BR1          2.1530     0.2850    -0.3100 br         1 82S      -0.294000
     11 C1          -0.7500    -0.3430    -0.7600 c5         1 82S      -0.043000
     12 H1           0.3230     1.4040    -1.4950 h1         1 82S       0.075700
     13 H2           0.3220     1.5950     1.4770 hc         1 82S       0.058200
     14 H3          -0.4370     2.6780     0.3300 hc         1 82S       0.058200
     15 H4          -2.0900     1.2000     1.8350 hc         1 82S       0.069700
     16 H5          -3.6050     0.9340    -0.1380 hc         1 82S       0.045700
     17 H6          -2.5900     2.2970    -0.5730 hc         1 82S       0.045700
     18 H7          -2.6430    -0.3530    -1.8540 hc         1 82S       0.045700
     19 H8          -1.6050     0.9720    -2.3050 hc         1 82S       0.045700
     20 H9          -3.2940    -1.2720    -0.0420 hc         1 82S       0.036367
     21 H10         -2.2210    -2.5230     0.5570 hc         1 82S       0.036367
     22 H11         -3.0200    -1.4380     1.6830 hc         1 82S       0.036367
     23 H12         -0.8530    -1.2280     2.6660 hc         1 82S       0.036367
     24 H13          0.0310    -2.0870     1.4160 hc         1 82S       0.036367
     25 H14          0.5280    -0.4750     1.8970 hc         1 82S       0.036367
     26 H15          0.5240    -2.0910    -1.0040 hc         1 82S       0.042033
     27 H16         -1.0950    -2.2570    -1.6770 hc         1 82S       0.042033
     28 H17          0.1070    -1.2780    -2.5100 hc         1 82S       0.042033
@<TRIPOS>BOND
     1     1     2 1   
     2     1    10 1   
     3     1    11 1   
     4     1    12 1   
     5     2     3 1   
     6     2    13 1   
     7     2    14 1   
     8     3     4 1   
     9     3     6 1   
    10     3    15 1   
    11     4     5 1   
    12     4    16 1   
    13     4    17 1   
    14     5    11 1   
    15     5    18 1   
    16     5    19 1   
    17     6     7 1   
    18     6     8 1   
    19     6    11 1   
    20     7    20 1   
    21     7    21 1   
    22     7    22 1   
    23     8    23 1   
    24     8    24 1   
    25     8    25 1   
    26     9    11 1   
    27     9    26 1   
    28     9    27 1   
    29     9    28 1   
@<TRIPOS>SUBSTRUCTURE
     1 82S         1 TEMP              0 ****  ****    0 ROOT
