@<TRIPOS>MOLECULE
82T
   79    78     1     0     0
SMALL
No Charge or Current Charge


@<TRIPOS>ATOM
      1 C10        109.6350   130.4500   110.2430 c3         1 82T      -0.077400
      2 C13        110.7900   133.5520   111.2280 c3         1 82T      -0.070400
      3 C15        112.8790   132.5150   110.0660 c3         1 82T      -0.074400
      4 C17        115.3140   133.0020   110.8340 c3         1 82T      -0.191400
      5 C21        116.7790   131.2580   112.7690 c3         1 82T       0.132600
      6 C22        116.8780   129.8120   112.2110 c3         1 82T       0.131300
      7 C1         110.3340   124.6500   103.9680 c3         1 82T      -0.087100
      8 C2         110.3680   125.4040   105.3120 c3         1 82T      -0.076400
      9 C3         109.6490   124.6470   106.4500 c3         1 82T      -0.076400
     10 C4         109.6640   125.4170   107.7900 c3         1 82T      -0.077400
     11 C5         108.9590   124.6530   108.9330 c3         1 82T      -0.072400
     12 C6         109.0960   125.2830   110.3440 c3         1 82T      -0.074400
     13 C7         108.4520   126.6820   110.5330 c3         1 82T      -0.061400
     14 C8         109.3950   127.8790   110.2560 c3         1 82T      -0.080400
     15 C9         108.7110   129.2410   110.5090 c3         1 82T      -0.073400
     16 C11        108.9370   131.7990   110.5330 c3         1 82T      -0.075400
     17 C12        109.7510   133.0690   110.1770 c3         1 82T      -0.071400
     18 C14        112.0990   132.7350   111.3870 c3         1 82T      -0.076400
     19 C16        114.3170   131.9680   110.2460 c3         1 82T      -0.072400
     20 C18        116.7830   132.5550   110.6740 c          1 82T       0.613100
     21 C23        116.3580   128.7630   113.2340 c3         1 82T       0.240600
     22 C29        115.0010   127.4490   110.3140 c3         1 82T       0.236600
     23 C30        115.2120   128.2140   108.9700 c3         1 82T       0.141800
     24 N31        114.0300   128.2450   108.0690 n8         1 82T      -0.966200
     25 O19        117.4170   132.8030   109.6610 o          1 82T      -0.461000
     26 O20        117.4180   132.1610   111.8310 os         1 82T      -0.463100
     27 O24        114.9330   128.8840   113.3460 os         1 82T      -0.584400
     28 O26        112.5460   128.0100   113.1870 o          1 82T      -0.828000
     29 O27        114.3920   126.3900   112.9900 o          1 82T      -0.828000
     30 O28        114.0650   128.1630   111.1410 os         1 82T      -0.581400
     31 O32        118.2460   129.5340   111.8580 oh         1 82T      -0.620000
     32 P25        113.9400   127.7840   112.7020 p5         1 82T       1.408800
     33 H1         109.9620   130.4290   109.1960 hc         1 82T       0.037200
     34 H2         110.5310   130.3480   110.8610 hc         1 82T       0.037200
     35 H3         111.0720   134.5790   110.9660 hc         1 82T       0.030700
     36 H4         110.2980   133.6190   112.2070 hc         1 82T       0.030700
     37 H5         112.9230   133.4570   109.5060 hc         1 82T       0.040700
     38 H6         112.3200   131.8080   109.4410 hc         1 82T       0.040700
     39 H7         115.1930   133.9430   110.2860 hc         1 82T       0.063700
     40 H8         115.0640   133.1650   111.8860 hc         1 82T       0.063700
     41 H9         115.7320   131.5090   112.9740 h1         1 82T       0.053200
     42 H10        117.3100   131.2930   113.7290 h1         1 82T       0.053200
     43 H11        116.2580   129.7540   111.3090 h1         1 82T       0.037700
     44 H12        110.8510   125.2290   103.1930 hc         1 82T       0.026033
     45 H13        110.8300   123.6760   104.0560 hc         1 82T       0.026033
     46 H14        109.3000   124.4850   103.6410 hc         1 82T       0.026033
     47 H15        111.4130   125.5780   105.5960 hc         1 82T       0.035200
     48 H16        109.9030   126.3880   105.1790 hc         1 82T       0.035200
     49 H17        108.6080   124.4580   106.1570 hc         1 82T       0.032200
     50 H18        110.1260   123.6690   106.5890 hc         1 82T       0.032200
     51 H19        110.7030   125.6230   108.0770 hc         1 82T       0.037700
     52 H20        109.1660   126.3810   107.6380 hc         1 82T       0.037700
     53 H21        107.8940   124.5470   108.6890 hc         1 82T       0.026200
     54 H22        109.3680   123.6370   108.9780 hc         1 82T       0.026200
     55 H23        108.6160   124.5960   111.0530 hc         1 82T       0.069200
     56 H24        110.1540   125.3180   110.6320 hc         1 82T       0.069200
     57 H25        107.5540   126.7610   109.9070 hc         1 82T       0.036700
     58 H26        108.1090   126.7580   111.5720 hc         1 82T       0.036700
     59 H27        110.2780   127.7980   110.9010 hc         1 82T       0.044700
     60 H28        109.7560   127.8520   109.2230 hc         1 82T       0.044700
     61 H29        108.3620   129.2790   111.5490 hc         1 82T       0.029700
     62 H30        107.8230   129.3200   109.8710 hc         1 82T       0.029700
     63 H31        108.6380   131.8410   111.5880 hc         1 82T       0.033700
     64 H32        108.0080   131.8270   109.9500 hc         1 82T       0.033700
     65 H33        110.2250   132.9470   109.1960 hc         1 82T       0.033700
     66 H34        109.0290   133.8860   110.0500 hc         1 82T       0.033700
     67 H35        112.7360   133.2790   112.0950 hc         1 82T       0.039700
     68 H36        111.8890   131.7700   111.8590 hc         1 82T       0.039700
     69 H37        114.2910   131.0680   110.8720 hc         1 82T       0.055200
     70 H38        114.6820   131.6520   109.2590 hc         1 82T       0.055200
     71 H39        116.8320   128.9370   114.2090 h1         1 82T       0.031200
     72 H40        116.6470   127.7560   112.9030 h1         1 82T       0.031200
     73 H41        114.6330   126.4340   110.1040 h1         1 82T       0.014200
     74 H42        115.9730   127.3550   110.8120 h1         1 82T       0.014200
     75 H43        116.0320   127.7310   108.4210 h1         1 82T       0.012200
     76 H44        115.5140   129.2490   109.1800 h1         1 82T       0.012200
     77 H45        114.2990   128.6760   107.1780 hn         1 82T       0.374000
     78 H46        113.7740   127.2840   107.8140 hn         1 82T       0.374000
     79 H49        118.6300   130.3930   111.5670 ho         1 82T       0.439000
@<TRIPOS>BOND
     1     1    15 1   
     2     1    16 1   
     3     1    33 1   
     4     1    34 1   
     5     2    17 1   
     6     2    18 1   
     7     2    35 1   
     8     2    36 1   
     9     3    18 1   
    10     3    19 1   
    11     3    37 1   
    12     3    38 1   
    13     4    19 1   
    14     4    20 1   
    15     4    39 1   
    16     4    40 1   
    17     5     6 1   
    18     5    26 1   
    19     5    41 1   
    20     5    42 1   
    21     6    21 1   
    22     6    31 1   
    23     6    43 1   
    24     7     8 1   
    25     7    44 1   
    26     7    45 1   
    27     7    46 1   
    28     8     9 1   
    29     8    47 1   
    30     8    48 1   
    31     9    10 1   
    32     9    49 1   
    33     9    50 1   
    34    10    11 1   
    35    10    51 1   
    36    10    52 1   
    37    11    12 1   
    38    11    53 1   
    39    11    54 1   
    40    12    13 1   
    41    12    55 1   
    42    12    56 1   
    43    13    14 1   
    44    13    57 1   
    45    13    58 1   
    46    14    15 1   
    47    14    59 1   
    48    14    60 1   
    49    15    61 1   
    50    15    62 1   
    51    16    17 1   
    52    16    63 1   
    53    16    64 1   
    54    17    65 1   
    55    17    66 1   
    56    18    67 1   
    57    18    68 1   
    58    19    69 1   
    59    19    70 1   
    60    20    25 2   
    61    20    26 1   
    62    21    27 1   
    63    21    71 1   
    64    21    72 1   
    65    22    23 1   
    66    22    30 1   
    67    22    73 1   
    68    22    74 1   
    69    23    24 1   
    70    23    75 1   
    71    23    76 1   
    72    24    77 1   
    73    24    78 1   
    74    27    32 1   
    75    28    32 1   
    76    29    32 1   
    77    30    32 1   
    78    31    79 1   
@<TRIPOS>SUBSTRUCTURE
     1 82T         1 TEMP              0 ****  ****    0 ROOT
