@<TRIPOS>MOLECULE
82T
   79    78     1     0     0
SMALL
abcg2


@<TRIPOS>ATOM
      1 C10        110.1460   130.4190   109.7780 c3         1 82T      -0.077400
      2 C13        109.5450   133.7210   110.7850 c3         1 82T      -0.070400
      3 C15        112.0140   133.7170   110.1210 c3         1 82T      -0.074400
      4 C17        113.9350   133.8760   111.7800 c3         1 82T      -0.191400
      5 C21        114.8630   131.3110   112.8030 c3         1 82T       0.132600
      6 C22        115.3080   130.1480   111.9240 c3         1 82T       0.131300
      7 C1         106.4390   125.2410   105.4210 c3         1 82T      -0.087100
      8 C2         107.5670   125.9690   106.1370 c3         1 82T      -0.076400
      9 C3         108.4390   125.0430   106.9760 c3         1 82T      -0.076400
     10 C4         109.5520   125.7800   107.7080 c3         1 82T      -0.077400
     11 C5         110.4220   124.8620   108.5580 c3         1 82T      -0.072400
     12 C6         111.5610   125.5490   109.3070 c3         1 82T      -0.074400
     13 C7         111.0980   126.6520   110.2670 c3         1 82T      -0.061400
     14 C8         111.0960   128.0550   109.6580 c3         1 82T      -0.080400
     15 C9         110.1570   129.0160   110.3730 c3         1 82T      -0.073400
     16 C11        108.9800   131.2640   110.2840 c3         1 82T      -0.075400
     17 C12        108.9760   132.7140   109.7860 c3         1 82T      -0.071400
     18 C14        110.9870   133.4800   111.2230 c3         1 82T      -0.076400
     19 C16        113.4210   133.2460   110.4780 c3         1 82T      -0.072400
     20 C18        115.3880   133.5830   112.0460 c          1 82T       0.613100
     21 C23        114.4030   128.9500   112.1520 c3         1 82T       0.240600
     22 C29        117.9030   126.0190   110.6750 c3         1 82T       0.236600
     23 C30        118.7920   126.2730   109.4750 c3         1 82T       0.141800
     24 N31        118.0890   126.0540   108.2210 n8         1 82T      -0.966200
     25 O19        116.2690   134.3690   111.8050 o          1 82T      -0.461000
     26 O20        115.7450   132.4100   112.5730 os         1 82T      -0.463100
     27 O24        114.6320   127.9260   111.2090 os         1 82T      -0.584400
     28 O26        114.7990   125.4380   110.8320 o          1 82T      -0.828000
     29 O27        115.7900   126.4630   113.0080 o          1 82T      -0.828000
     30 O28        116.8480   126.9590   110.7090 os         1 82T      -0.581400
     31 O32        116.6280   129.7730   112.2220 oh         1 82T      -0.620000
     32 P25        115.4880   126.5630   111.5430 p5         1 82T       1.408800
     33 H1         110.0780   130.3510   108.6860 hc         1 82T       0.037200
     34 H2         111.1000   130.9120   109.9880 hc         1 82T       0.037200
     35 H3         109.4640   134.7290   110.3660 hc         1 82T       0.030700
     36 H4         108.9070   133.7140   111.6740 hc         1 82T       0.030700
     37 H5         112.0370   134.7840   109.8750 hc         1 82T       0.040700
     38 H6         111.7120   133.2010   109.2060 hc         1 82T       0.040700
     39 H7         113.8440   134.9600   111.7060 hc         1 82T       0.063700
     40 H8         113.3180   133.5670   112.6260 hc         1 82T       0.063700
     41 H9         113.8210   131.5670   112.6130 h1         1 82T       0.053200
     42 H10        114.9520   131.0460   113.8590 h1         1 82T       0.053200
     43 H11        115.2100   130.4590   110.8730 h1         1 82T       0.037700
     44 H12        105.8320   125.9250   104.8280 hc         1 82T       0.026033
     45 H13        106.8300   124.4770   104.7480 hc         1 82T       0.026033
     46 H14        105.7770   124.7440   106.1330 hc         1 82T       0.026033
     47 H15        108.1940   126.4860   105.4040 hc         1 82T       0.035200
     48 H16        107.1500   126.7500   106.7810 hc         1 82T       0.035200
     49 H17        107.8130   124.5160   107.7040 hc         1 82T       0.032200
     50 H18        108.8720   124.2690   106.3320 hc         1 82T       0.032200
     51 H19        110.1780   126.3090   106.9800 hc         1 82T       0.037700
     52 H20        109.1020   126.5530   108.3390 hc         1 82T       0.037700
     53 H21        109.7820   124.3510   109.2870 hc         1 82T       0.026200
     54 H22        110.8380   124.0760   107.9200 hc         1 82T       0.026200
     55 H23        112.1100   124.7860   109.8630 hc         1 82T       0.069200
     56 H24        112.2790   125.9660   108.5930 hc         1 82T       0.069200
     57 H25        110.0930   126.4090   110.6300 hc         1 82T       0.036700
     58 H26        111.7360   126.6600   111.1560 hc         1 82T       0.036700
     59 H27        112.1180   128.4490   109.6620 hc         1 82T       0.044700
     60 H28        110.8040   128.0070   108.6050 hc         1 82T       0.044700
     61 H29        110.4160   129.0730   111.4360 hc         1 82T       0.029700
     62 H30        109.1420   128.6030   110.3330 hc         1 82T       0.029700
     63 H31        108.9690   131.2510   111.3800 hc         1 82T       0.033700
     64 H32        108.0540   130.7690   109.9780 hc         1 82T       0.033700
     65 H33        109.5130   132.7760   108.8340 hc         1 82T       0.033700
     66 H34        107.9510   133.0190   109.5600 hc         1 82T       0.033700
     67 H35        111.2020   134.1440   112.0640 hc         1 82T       0.039700
     68 H36        111.0940   132.4630   111.6160 hc         1 82T       0.039700
     69 H37        113.4180   132.1550   110.5530 hc         1 82T       0.055200
     70 H38        114.1050   133.4950   109.6640 hc         1 82T       0.055200
     71 H39        113.3630   129.2720   112.0380 h1         1 82T       0.031200
     72 H40        114.5230   128.5870   113.1770 h1         1 82T       0.031200
     73 H41        117.5230   124.9900   110.6260 h1         1 82T       0.014200
     74 H42        118.5120   126.0890   111.5830 h1         1 82T       0.014200
     75 H43        119.6860   125.6460   109.6000 h1         1 82T       0.012200
     76 H44        119.1410   127.3090   109.5020 h1         1 82T       0.012200
     77 H45        118.7000   126.2880   107.4500 hn         1 82T       0.374000
     78 H46        117.8870   125.0660   108.1190 hn         1 82T       0.374000
     79 H49        117.2250   130.4530   111.8960 ho         1 82T       0.439000
@<TRIPOS>BOND
     1     1    15 1   
     2     1    16 1   
     3     1    33 1   
     4     1    34 1   
     5     2    17 1   
     6     2    18 1   
     7     2    35 1   
     8     2    36 1   
     9     3    18 1   
    10     3    19 1   
    11     3    37 1   
    12     3    38 1   
    13     4    19 1   
    14     4    20 1   
    15     4    39 1   
    16     4    40 1   
    17     5     6 1   
    18     5    26 1   
    19     5    41 1   
    20     5    42 1   
    21     6    21 1   
    22     6    31 1   
    23     6    43 1   
    24     7     8 1   
    25     7    44 1   
    26     7    45 1   
    27     7    46 1   
    28     8     9 1   
    29     8    47 1   
    30     8    48 1   
    31     9    10 1   
    32     9    49 1   
    33     9    50 1   
    34    10    11 1   
    35    10    51 1   
    36    10    52 1   
    37    11    12 1   
    38    11    53 1   
    39    11    54 1   
    40    12    13 1   
    41    12    55 1   
    42    12    56 1   
    43    13    14 1   
    44    13    57 1   
    45    13    58 1   
    46    14    15 1   
    47    14    59 1   
    48    14    60 1   
    49    15    61 1   
    50    15    62 1   
    51    16    17 1   
    52    16    63 1   
    53    16    64 1   
    54    17    65 1   
    55    17    66 1   
    56    18    67 1   
    57    18    68 1   
    58    19    69 1   
    59    19    70 1   
    60    20    25 2   
    61    20    26 1   
    62    21    27 1   
    63    21    71 1   
    64    21    72 1   
    65    22    23 1   
    66    22    30 1   
    67    22    73 1   
    68    22    74 1   
    69    23    24 1   
    70    23    75 1   
    71    23    76 1   
    72    24    77 1   
    73    24    78 1   
    74    27    32 1   
    75    28    32 1   
    76    29    32 1   
    77    30    32 1   
    78    31    79 1   
@<TRIPOS>SUBSTRUCTURE
     1 82T         1 TEMP              0 ****  ****    0 ROOT
