@<TRIPOS>MOLECULE
82U
   44    45     1     0     0
SMALL
No Charge or Current Charge


@<TRIPOS>ATOM
      1 C6         114.7370   111.4480   145.4870 c3         1 82U       0.229800
      2 C8         117.0700   112.0380   144.5080 c3         1 82U      -0.080400
      3 C13        118.3890   110.0940   148.6460 ca         1 82U      -0.088500
      4 C15        116.3440   108.7690   148.6070 ca         1 82U      -0.088500
      5 C17        110.1690   113.2710   147.7680 c          1 82U       0.714600
      6 N          114.9230   112.1950   146.7370 nu         1 82U      -0.986200
      7 CA         113.9320   112.4720   147.6930 ca         1 82U       0.284000
      8 C          114.2570   112.5220   149.0770 ca         1 82U       0.057100
      9 O          115.5490   112.2740   149.5110 os         1 82U      -0.247200
     10 CB         112.6100   112.7170   147.2830 ca         1 82U      -0.102000
     11 CG         111.5950   113.0120   148.2220 ca         1 82U      -0.123600
     12 CD2        111.9350   113.0750   149.5920 ca         1 82U      -0.024000
     13 NE1        114.2080   111.4780   152.1430 n8         1 82U      -1.022100
     14 CZ2        116.0930   110.9270   144.9650 c3         1 82U      -0.084400
     15 CZ3        118.4050   111.4820   143.9780 c3         1 82U      -0.085100
     16 C1         113.2590   112.8430   150.0260 ca         1 82U      -0.246500
     17 C11        116.2530   111.1380   149.1700 ca         1 82U       0.149100
     18 C12        117.6450   111.2290   149.0140 ca         1 82U      -0.158000
     19 C14        117.7370   108.8660   148.4420 ca         1 82U      -0.160000
     20 C16        115.6010   109.9040   148.9730 ca         1 82U      -0.158000
     21 O1         114.8100   113.8240   151.9840 o          1 82U      -0.559000
     22 O2         112.4150   113.1220   152.5640 o          1 82U      -0.559000
     23 O4         109.9100   113.1910   146.5750 o          1 82U      -0.708500
     24 O5         109.3280   113.5490   148.6120 o          1 82U      -0.708500
     25 S1         113.6420   112.9690   151.7820 sy         1 82U       1.138600
     26 H1         114.2530   112.0770   144.7270 h1         1 82U       0.038200
     27 H2         114.0870   110.5820   145.6730 h1         1 82U       0.038200
     28 H3         117.2780   112.7150   145.3450 hc         1 82U       0.059200
     29 H4         116.5940   112.6390   143.7230 hc         1 82U       0.059200
     30 H5         119.4670   110.1660   148.5190 ha         1 82U       0.103000
     31 H6         115.8420   107.8170   148.4490 ha         1 82U       0.103000
     32 H7         115.8500   112.1010   147.1500 hn         1 82U       0.474000
     33 H8         112.3720   112.6830   146.2250 ha         1 82U       0.140000
     34 H9         111.1630   113.3140   150.3220 ha         1 82U       0.164000
     35 H10        114.7480   111.2700   151.3060 hn         1 82U       0.469000
     36 H11        114.9190   111.7060   152.8330 hn         1 82U       0.469000
     37 H12        115.8990   110.2600   144.1160 hc         1 82U       0.029200
     38 H13        116.5690   110.3150   145.7410 hc         1 82U       0.029200
     39 H14        119.0640   112.3020   143.6660 hc         1 82U       0.023700
     40 H15        118.9200   110.9050   144.7550 hc         1 82U       0.023700
     41 H16        118.2380   110.8290   143.1130 hc         1 82U       0.023700
     42 H17        118.1460   112.1810   149.1690 ha         1 82U       0.132000
     43 H18        118.3120   107.9870   148.1570 ha         1 82U       0.102000
     44 H19        114.5230   109.8240   149.0930 ha         1 82U       0.132000
@<TRIPOS>BOND
     1     1     6 1   
     2     1    14 1   
     3     1    26 1   
     4     1    27 1   
     5     2    14 1   
     6     2    15 1   
     7     2    28 1   
     8     2    29 1   
     9     3    18 ar  
    10     3    19 ar  
    11     3    30 1   
    12     4    19 ar  
    13     4    20 ar  
    14     4    31 1   
    15     5    11 1   
    16     5    23 1   
    17     5    24 1   
    18     6     7 1   
    19     6    32 1   
    20     7     8 ar  
    21     7    10 ar  
    22     8     9 1   
    23     8    16 ar  
    24     9    17 1   
    25    10    11 ar  
    26    10    33 1   
    27    11    12 ar  
    28    12    16 ar  
    29    12    34 1   
    30    13    25 1   
    31    13    35 1   
    32    13    36 1   
    33    14    37 1   
    34    14    38 1   
    35    15    39 1   
    36    15    40 1   
    37    15    41 1   
    38    16    25 1   
    39    17    18 ar  
    40    17    20 ar  
    41    18    42 1   
    42    19    43 1   
    43    20    44 1   
    44    21    25 2   
    45    22    25 2   
@<TRIPOS>SUBSTRUCTURE
     1 82U         1 TEMP              0 ****  ****    0 ROOT
