@<TRIPOS>MOLECULE
82U
   44    45     1     0     0
SMALL
bcc


@<TRIPOS>ATOM
      1 C6         115.7000   110.7960   145.5790 c3         1 82U       0.229800
      2 C8         115.8100   112.8000   143.9950 c3         1 82U      -0.080400
      3 C13        117.9340   109.0470   150.6300 ca         1 82U      -0.106500
      4 C15        115.8540   108.2540   149.7460 ca         1 82U      -0.106500
      5 C17        111.2380   113.4140   146.8760 c          1 82U       0.925200
      6 N          115.8250   111.5460   146.8120 nu         1 82U      -0.792600
      7 CA         114.7750   112.0670   147.5150 ca         1 82U       0.145600
      8 C          114.8690   112.2540   148.9050 ca         1 82U       0.057100
      9 O          116.0220   111.9220   149.5590 os         1 82U      -0.247200
     10 CB         113.5780   112.4550   146.9000 ca         1 82U      -0.120000
     11 CG         112.5180   112.9980   147.6070 ca         1 82U      -0.123600
     12 CD2        112.6350   113.1860   148.9810 ca         1 82U      -0.042000
     13 NE1        114.2300   111.5960   151.9540 n8         1 82U      -0.911700
     14 CZ2        116.3910   111.4500   144.3890 c3         1 82U      -0.084400
     15 CZ3        116.5130   113.4060   142.7880 c3         1 82U      -0.085100
     16 C1         113.8080   112.8080   149.6140 ca         1 82U      -0.246500
     17 C11        116.3140   110.6050   149.7900 ca         1 82U       0.149100
     18 C12        117.5540   110.3540   150.3650 ca         1 82U      -0.176000
     19 C14        117.0900   107.9890   150.3190 ca         1 82U      -0.178000
     20 C16        115.4560   109.5580   149.4800 ca         1 82U      -0.176000
     21 O1         115.1610   113.8830   151.6280 o          1 82U      -0.629800
     22 O2         112.6830   113.6400   151.8140 o          1 82U      -0.629800
     23 O4         111.2240   113.2360   145.6440 o          1 82U      -0.813800
     24 O5         110.3320   113.8920   147.5830 o          1 82U      -0.813800
     25 S1         113.9610   113.1080   151.3590 sy         1 82U       1.280200
     26 H1         114.6430   110.6410   145.3550 h1         1 82U       0.038200
     27 H2         116.1240   109.7990   145.7350 h1         1 82U       0.038200
     28 H3         115.8780   113.4880   144.8430 hc         1 82U       0.059200
     29 H4         114.7430   112.6870   143.7780 hc         1 82U       0.059200
     30 H5         118.9000   108.8580   151.0800 ha         1 82U       0.121000
     31 H6         115.1840   107.4410   149.5020 ha         1 82U       0.121000
     32 H7         116.6750   111.3770   147.3220 hn         1 82U       0.418800
     33 H8         113.4690   112.3490   145.8290 ha         1 82U       0.158000
     34 H9         111.8170   113.6170   149.5370 ha         1 82U       0.182000
     35 H10        114.8150   111.6040   152.7830 hn         1 82U       0.413800
     36 H11        113.3800   111.0640   152.1010 hn         1 82U       0.413800
     37 H12        116.3210   110.7610   143.5410 hc         1 82U       0.029200
     38 H13        117.4590   111.5570   144.6060 hc         1 82U       0.029200
     39 H14        116.0880   114.3740   142.5220 hc         1 82U       0.023700
     40 H15        117.5760   113.5540   142.9850 hc         1 82U       0.023700
     41 H16        116.4280   112.7560   141.9150 hc         1 82U       0.023700
     42 H17        118.2130   111.1790   150.6060 ha         1 82U       0.150000
     43 H18        117.3900   106.9700   150.5240 ha         1 82U       0.120000
     44 H19        114.4820   109.7430   149.0460 ha         1 82U       0.150000
@<TRIPOS>BOND
     1     1     6 1   
     2     1    14 1   
     3     1    26 1   
     4     1    27 1   
     5     2    14 1   
     6     2    15 1   
     7     2    28 1   
     8     2    29 1   
     9     3    18 ar  
    10     3    19 ar  
    11     3    30 1   
    12     4    19 ar  
    13     4    20 ar  
    14     4    31 1   
    15     5    11 1   
    16     5    23 1   
    17     5    24 1   
    18     6     7 1   
    19     6    32 1   
    20     7     8 ar  
    21     7    10 ar  
    22     8     9 1   
    23     8    16 ar  
    24     9    17 1   
    25    10    11 ar  
    26    10    33 1   
    27    11    12 ar  
    28    12    16 ar  
    29    12    34 1   
    30    13    25 1   
    31    13    35 1   
    32    13    36 1   
    33    14    37 1   
    34    14    38 1   
    35    15    39 1   
    36    15    40 1   
    37    15    41 1   
    38    16    25 1   
    39    17    18 ar  
    40    17    20 ar  
    41    18    42 1   
    42    19    43 1   
    43    20    44 1   
    44    21    25 2   
    45    22    25 2   
@<TRIPOS>SUBSTRUCTURE
     1 82U         1 TEMP              0 ****  ****    0 ROOT
