@<TRIPOS>MOLECULE
82V
   43    47     1     0     0
SMALL
bcc


@<TRIPOS>ATOM
      1 C10          1.9440     2.4830     0.5390 c6         1 82V       0.179800
      2 C13          1.7700    -2.3950    -0.0740 cc         1 82V      -0.227700
      3 C15         -0.5690    -3.0930     0.1000 cc         1 82V      -0.103100
      4 C17         -1.5990    -0.8000     0.3110 ca         1 82V      -0.012000
      5 C20         -3.7690     0.9470     0.5710 ca         1 82V       0.062100
      6 C22         -5.7750     1.7460    -0.3080 c6         1 82V       0.094400
      7 C26         -2.7600    -0.9990    -0.4300 ca         1 82V      -0.112000
      8 C02          3.2000    -2.1880    -0.1930 c          1 82V       0.642900
      9 C03          3.5520    -0.7970    -0.1550 cc         1 82V      -0.440200
     10 C04          2.6130     0.2010    -0.0600 cd         1 82V       0.388100
     11 N05          2.8470     1.5270    -0.1020 nh         1 82V      -0.669400
     12 C06          4.2110     2.0080    -0.2490 c6         1 82V       0.179800
     13 C07          4.2090     3.3970    -0.8640 c6         1 82V       0.118900
     14 O08          3.3960     4.2930    -0.1470 os         1 82V      -0.392600
     15 C09          2.0640     3.8360    -0.1330 c6         1 82V       0.118900
     16 O11          1.3030    -0.0770     0.0620 os         1 82V      -0.211200
     17 C12          0.8980    -1.3570     0.0640 cd         1 82V       0.134100
     18 S14          0.9360    -3.8920    -0.0830 ss         1 82V       0.049200
     19 C16         -0.4710    -1.7310     0.1720 cd         1 82V      -0.057000
     20 C18         -1.5420     0.2750     1.1980 ca         1 82V      -0.111000
     21 C19         -2.6150     1.1400     1.3190 ca         1 82V      -0.132000
     22 O21         -4.7890     1.8230     0.7110 os         1 82V      -0.305900
     23 C23         -6.1090     0.3040    -0.6030 c6         1 82V       0.094400
     24 O24         -4.9490    -0.3870    -1.0440 os         1 82V      -0.305900
     25 C25         -3.8440    -0.1430    -0.3030 ca         1 82V       0.055100
     26 H1           0.9110     2.1540     0.4620 h1         1 82V       0.062950
     27 H2           2.1950     2.5690     1.6030 h1         1 82V       0.062950
     28 H3          -1.4760    -3.6760     0.1630 h4         1 82V       0.176000
     29 H4          -6.6550     2.2750     0.0550 h1         1 82V       0.068200
     30 H5          -5.4200     2.2490    -1.2140 h1         1 82V       0.068200
     31 H6          -2.8290    -1.8220    -1.1330 ha         1 82V       0.149000
     32 H7           4.6010    -0.5440    -0.1940 ha         1 82V       0.159000
     33 H11          4.7250     2.0150     0.7190 h1         1 82V       0.062950
     34 H12          4.7650     1.3530    -0.9190 h1         1 82V       0.062950
     35 H13          5.2260     3.7900    -0.8600 h1         1 82V       0.059200
     36 H14          3.8760     3.3260    -1.9080 h1         1 82V       0.059200
     37 H15          1.6670     3.7730    -1.1560 h1         1 82V       0.059200
     38 H16          1.4660     4.5630     0.4170 h1         1 82V       0.059200
     39 H17         -0.6660     0.4380     1.8120 ha         1 82V       0.140000
     40 H18         -2.5680     1.9780     2.0040 ha         1 82V       0.145000
     41 H19         -6.5200    -0.1840     0.2870 h1         1 82V       0.068200
     42 H20         -6.8460     0.2390    -1.4020 h1         1 82V       0.068200
     43 O01          3.9990    -3.1180    -0.2920 o          1 82V      -0.570100
@<TRIPOS>BOND
     1     1    11 1   
     2     1    15 1   
     3     1    26 1   
     4     1    27 1   
     5     2     8 1   
     6     2    17 2   
     7     2    18 1   
     8     3    18 1   
     9     3    19 2   
    10     3    28 1   
    11     4     7 ar  
    12     4    19 1   
    13     4    20 ar  
    14     5    21 ar  
    15     5    22 1   
    16     5    25 ar  
    17     6    22 1   
    18     6    23 1   
    19     6    29 1   
    20     6    30 1   
    21     7    25 ar  
    22     7    31 1   
    23     8     9 1   
    24     8    43 2   
    25     9    10 2   
    26     9    32 1   
    27    10    11 1   
    28    10    16 1   
    29    11    12 1   
    30    12    13 1   
    31    12    33 1   
    32    12    34 1   
    33    13    14 1   
    34    13    35 1   
    35    13    36 1   
    36    14    15 1   
    37    15    37 1   
    38    15    38 1   
    39    16    17 1   
    40    17    19 1   
    41    20    21 ar  
    42    20    39 1   
    43    21    40 1   
    44    23    24 1   
    45    23    41 1   
    46    23    42 1   
    47    24    25 1   
@<TRIPOS>SUBSTRUCTURE
     1 82V         1 TEMP              0 ****  ****    0 ROOT
