@<TRIPOS>MOLECULE
82V
   43    47     1     0     0
SMALL
No Charge or Current Charge


@<TRIPOS>ATOM
      1 C10          2.1980     2.5780     0.7720 c6         1 82V       0.179800
      2 C13          1.7620    -2.3840    -0.0310 cc         1 82V      -0.372600
      3 C15         -0.6210    -3.0060    -0.3030 cc         1 82V      -0.230000
      4 C17         -1.6430    -0.7560     0.2070 ca         1 82V      -0.012000
      5 C20         -3.8820     0.9840     0.4210 ca         1 82V       0.062100
      6 C22         -6.0760     1.6100    -0.3670 c6         1 82V       0.117600
      7 C26         -2.8900    -1.1040    -0.3660 ca         1 82V      -0.094000
      8 C02          3.1920    -2.2300     0.0360 c          1 82V       0.642900
      9 C03          3.5810    -0.8410    -0.0310 cc         1 82V      -0.490200
     10 C04          2.6660     0.1700     0.1470 cd         1 82V       0.388100
     11 N05          3.0230     1.5250     0.0860 nh         1 82V      -0.669400
     12 C06          4.3870     1.9790    -0.3530 c6         1 82V       0.179800
     13 C07          4.3740     3.4010    -0.9840 c6         1 82V       0.142100
     14 O08          3.6740     4.3390    -0.1360 os         1 82V      -0.439000
     15 C09          2.2940     3.9650     0.0750 c6         1 82V       0.142100
     16 O11          1.3690    -0.1010     0.5420 os         1 82V      -0.211200
     17 C12          0.9090    -1.3540     0.2070 cd         1 82V       0.134100
     18 S14          0.9160    -3.8740    -0.3400 ss         1 82V       0.339000
     19 C16         -0.4840    -1.6820     0.0790 cd         1 82V      -0.057000
     20 C18         -1.5560     0.4690     0.9130 ca         1 82V      -0.093000
     21 C19         -2.6630     1.3300     1.0170 ca         1 82V      -0.114000
     22 O21         -4.9550     1.8480     0.5120 os         1 82V      -0.329100
     23 C23         -6.3850     0.0980    -0.4250 c6         1 82V       0.117600
     24 O24         -5.2030    -0.6300    -0.8230 os         1 82V      -0.329100
     25 C25         -4.0010    -0.2510    -0.2580 ca         1 82V       0.055100
     26 H1           1.1370     2.2960     0.8030 h1         1 82V       0.062950
     27 H2           2.5300     2.6830     1.8150 h1         1 82V       0.062950
     28 H3          -1.5180    -3.5720    -0.5100 h4         1 82V       0.158000
     29 H4          -6.9490     2.1720    -0.0060 h1         1 82V       0.068200
     30 H5          -5.8240     1.9710    -1.3740 h1         1 82V       0.068200
     31 H6          -3.0120    -2.0310    -0.9150 ha         1 82V       0.131000
     32 H7           4.6360    -0.6710    -0.1800 ha         1 82V       0.209000
     33 H11          5.0740     1.9760     0.5060 h1         1 82V       0.062950
     34 H12          4.8030     1.2940    -1.1050 h1         1 82V       0.062950
     35 H13          5.4050     3.7510    -1.1350 h1         1 82V       0.059200
     36 H14          3.8810     3.3670    -1.9660 h1         1 82V       0.059200
     37 H15          1.7760     3.9310    -0.8940 h1         1 82V       0.059200
     38 H16          1.8040     4.7280     0.6960 h1         1 82V       0.059200
     39 H17         -0.6440     0.7600     1.4200 ha         1 82V       0.122000
     40 H18         -2.5740     2.2680     1.5600 ha         1 82V       0.127000
     41 H19         -6.7020    -0.2500     0.5690 h1         1 82V       0.068200
     42 H20         -7.1970    -0.1060    -1.1370 h1         1 82V       0.068200
     43 O01          3.9910    -3.1530     0.0000 o          1 82V      -0.570100
@<TRIPOS>BOND
     1     1    11 1   
     2     1    15 1   
     3     1    26 1   
     4     1    27 1   
     5     2     8 1   
     6     2    17 2   
     7     2    18 1   
     8     3    18 1   
     9     3    19 2   
    10     3    28 1   
    11     4     7 ar  
    12     4    19 1   
    13     4    20 ar  
    14     5    21 ar  
    15     5    22 1   
    16     5    25 ar  
    17     6    22 1   
    18     6    23 1   
    19     6    29 1   
    20     6    30 1   
    21     7    25 ar  
    22     7    31 1   
    23     8     9 1   
    24     8    43 2   
    25     9    10 2   
    26     9    32 1   
    27    10    11 1   
    28    10    16 1   
    29    11    12 1   
    30    12    13 1   
    31    12    33 1   
    32    12    34 1   
    33    13    14 1   
    34    13    35 1   
    35    13    36 1   
    36    14    15 1   
    37    15    37 1   
    38    15    38 1   
    39    16    17 1   
    40    17    19 1   
    41    20    21 ar  
    42    20    39 1   
    43    21    40 1   
    44    23    24 1   
    45    23    41 1   
    46    23    42 1   
    47    24    25 1   
@<TRIPOS>SUBSTRUCTURE
     1 82V         1 TEMP              0 ****  ****    0 ROOT
