@<TRIPOS>MOLECULE
82W
   74    78     1     0     0
SMALL
No Charge or Current Charge


@<TRIPOS>ATOM
      1 O2         118.5970   112.9020    97.4670 os         1 82W      -0.444000
      2 O3         116.5550   108.1790    97.8720 os         1 82W      -0.454000
      3 C21        116.6700   103.8780    98.4390 c3         1 82W      -0.077100
      4 C10        116.6230   105.4310    98.5480 c6         1 82W      -0.060700
      5 C11        116.7410   105.9420   100.0200 c6         1 82W       0.188300
      6 O5         117.9840   105.5340   100.6000 oh         1 82W      -0.655000
      7 C12        116.5040   107.4970   100.1360 c5         1 82W      -0.112700
      8 C7         115.0500   107.8190    99.6840 c5         1 82W      -0.059500
      9 C6         114.6630   109.2670    99.9850 c2         1 82W      -0.217200
     10 C5         115.5770   110.2430    99.8800 c2         1 82W      -0.203200
     11 C4         117.0160   110.0000    99.4350 c6         1 82W      -0.028500
     12 C3         117.3290   111.0110    98.2560 c3         1 82W      -0.069400
     13 C2         118.7610   111.6170    98.1270 c3         1 82W       0.121300
     14 C20        119.7710   113.7360    97.4360 c3         1 82W       0.139900
     15 C1         119.7520   110.6900    97.3590 c          1 82W       0.625100
     16 O1         119.8410   110.6330    96.1380 o          1 82W      -0.526000
     17 O6         120.6890   110.1730    98.2220 os         1 82W      -0.454100
     18 C17        121.5970   109.1110    97.8230 c3         1 82W       0.155300
     19 C18        122.6820   109.6420    96.8150 c3         1 82W       0.154300
     20 C19        123.2660   111.0150    97.2200 c3         1 82W      -0.082100
     21 O7         123.7870   108.7230    96.7420 oh         1 82W      -0.671000
     22 C16        120.7860   107.7980    97.4480 c3         1 82W      -0.039500
     23 C23        120.9160   107.3450    95.9680 c3         1 82W      -0.093100
     24 C15        119.3000   107.8780    97.8150 c2         1 82W      -0.206200
     25 C14        118.7560   108.1270    99.0310 c2         1 82W      -0.101400
     26 C22        119.5960   108.2620   100.3030 c3         1 82W      -0.047900
     27 C13        117.2440   108.4660    99.1240 c5         1 82W       0.224200
     28 C8         115.2630   107.5700    98.1580 c5         1 82W       0.152300
     29 C9         115.3650   106.0370    97.8480 c6         1 82W       0.163300
     30 O4         114.1740   105.3290    98.2720 os         1 82W      -0.478100
     31 C28        112.9760   105.5160    97.6360 c          1 82W       0.635700
     32 O8         112.8370   106.2310    96.6550 o          1 82W      -0.476000
     33 C27        111.8750   104.7520    98.2560 cc         1 82W      -0.253600
     34 C26        110.5760   104.7580    97.8160 cd         1 82W      -0.086000
     35 C25        109.8120   103.9180    98.6490 cd         1 82W      -0.199000
     36 C24        110.6220   103.3810    99.6130 cc         1 82W      -0.164000
     37 N1         111.8970   103.8990    99.3660 na         1 82W      -0.082000
     38 H2         115.8730   103.4070    99.0260 hc         1 82W       0.040367
     39 H3         116.5560   103.5520    97.3980 hc         1 82W       0.040367
     40 H4         117.5070   105.7750    97.9970 hc         1 82W       0.086700
     41 H5         115.9330   105.4570   100.5880 h1         1 82W       0.030700
     42 H6         117.9090   105.6900   101.5650 ho         1 82W       0.439000
     43 H7         116.6710   107.7740   101.1830 hc         1 82W       0.069700
     44 H8         114.3150   107.1370   100.1300 hc         1 82W       0.080700
     45 H9         113.6480   109.5080   100.3100 ha         1 82W       0.185000
     46 H10        115.3050   111.2720   100.1260 ha         1 82W       0.180000
     47 H11        117.6510   110.2920   100.2810 hc         1 82W       0.061700
     48 H12        116.6570   111.8700    98.3690 hc         1 82W       0.077200
     49 H13        117.0450   110.5770    97.2910 hc         1 82W       0.077200
     50 H14        119.1590   111.7730    99.1380 h1         1 82W       0.054700
     51 H15        119.5370   114.7030    96.9730 h1         1 82W       0.036700
     52 H16        120.1430   113.9260    98.4510 h1         1 82W       0.036700
     53 H17        120.5740   113.2690    96.8520 h1         1 82W       0.036700
     54 H18        122.1680   108.8460    98.7240 h1         1 82W       0.078700
     55 H19        122.2280   109.7570    95.8220 h1         1 82W       0.058700
     56 H20        122.4960   111.7940    97.1980 hc         1 82W       0.046033
     57 H21        123.6890   110.9770    98.2310 hc         1 82W       0.046033
     58 H22        124.0600   111.3150    96.5260 hc         1 82W       0.046033
     59 H23        123.4770   107.9270    96.2610 ho         1 82W       0.443000
     60 H24        121.2280   106.9850    98.0380 hc         1 82W       0.058700
     61 H25        121.9490   107.0920    95.7080 hc         1 82W       0.043033
     62 H26        120.3160   106.4440    95.7930 hc         1 82W       0.043033
     63 H27        120.5610   108.1220    95.2800 hc         1 82W       0.043033
     64 H28        118.6610   107.8420    96.9320 ha         1 82W       0.200000
     65 H29        119.1160   107.7960   101.1690 hc         1 82W       0.041367
     66 H30        120.5810   107.7960   100.2030 hc         1 82W       0.041367
     67 H31        119.7560   109.3140   100.5640 hc         1 82W       0.041367
     68 H32        114.4840   108.0330    97.5380 h1         1 82W       0.096700
     69 H33        115.4790   105.9000    96.7620 h1         1 82W       0.087700
     70 H34        110.1980   105.3200    96.9650 ha         1 82W       0.148000
     71 H35        108.7480   103.7250    98.5440 ha         1 82W       0.139000
     72 H36        110.4090   102.6960   100.4270 h4         1 82W       0.149000
     73 H37        112.7280   103.6870    99.9140 hn         1 82W       0.359000
     74 H1         117.6260   103.4810    98.8020 hc         1 82W       0.040367
@<TRIPOS>BOND
     1     1    13 1   
     2     1    14 1   
     3     2    27 1   
     4     2    28 1   
     5     3     4 1   
     6     3    38 1   
     7     3    39 1   
     8     3    74 1   
     9     4     5 1   
    10     4    29 1   
    11     4    40 1   
    12     5     6 1   
    13     5     7 1   
    14     5    41 1   
    15     6    42 1   
    16     7     8 1   
    17     7    27 1   
    18     7    43 1   
    19     8     9 1   
    20     8    28 1   
    21     8    44 1   
    22     9    10 2   
    23     9    45 1   
    24    10    11 1   
    25    10    46 1   
    26    11    12 1   
    27    11    27 1   
    28    11    47 1   
    29    12    13 1   
    30    12    48 1   
    31    12    49 1   
    32    13    15 1   
    33    13    50 1   
    34    14    51 1   
    35    14    52 1   
    36    14    53 1   
    37    15    16 2   
    38    15    17 1   
    39    17    18 1   
    40    18    19 1   
    41    18    22 1   
    42    18    54 1   
    43    19    20 1   
    44    19    21 1   
    45    19    55 1   
    46    20    56 1   
    47    20    57 1   
    48    20    58 1   
    49    21    59 1   
    50    22    23 1   
    51    22    24 1   
    52    22    60 1   
    53    23    61 1   
    54    23    62 1   
    55    23    63 1   
    56    24    25 2   
    57    24    64 1   
    58    25    26 1   
    59    25    27 1   
    60    26    65 1   
    61    26    66 1   
    62    26    67 1   
    63    28    29 1   
    64    28    68 1   
    65    29    30 1   
    66    29    69 1   
    67    30    31 1   
    68    31    32 2   
    69    31    33 1   
    70    33    34 2   
    71    33    37 1   
    72    34    35 1   
    73    34    70 1   
    74    35    36 2   
    75    35    71 1   
    76    36    37 1   
    77    36    72 1   
    78    37    73 1   
@<TRIPOS>SUBSTRUCTURE
     1 82W         1 TEMP              0 ****  ****    0 ROOT
