@<TRIPOS>MOLECULE
82W
   74    78     1     0     0
SMALL
abcg2


@<TRIPOS>ATOM
      1 O2         118.6090   112.8290    97.5960 os         1 82W      -0.444000
      2 O3         116.4950   108.2570    97.9010 os         1 82W      -0.454000
      3 C21        116.5320   103.9960    98.5470 c3         1 82W      -0.077100
      4 C10        116.5570   105.5210    98.6100 c6         1 82W      -0.060700
      5 C11        116.7050   106.0500   100.0400 c6         1 82W       0.188300
      6 O5         117.9780   105.6100   100.5160 oh         1 82W      -0.655000
      7 C12        116.4920   107.5720   100.1480 c5         1 82W      -0.112700
      8 C7         115.0530   107.8790    99.7100 c5         1 82W      -0.059500
      9 C6         114.7150   109.3070   100.0190 c2         1 82W      -0.217200
     10 C5         115.6520   110.2470    99.9600 c2         1 82W      -0.203200
     11 C4         117.0680   109.9800    99.5080 c6         1 82W      -0.028500
     12 C3         117.3850   110.9470    98.3370 c3         1 82W      -0.069400
     13 C2         118.7830   111.5760    98.2430 c3         1 82W       0.121300
     14 C20        119.7770   113.6420    97.6010 c3         1 82W       0.139900
     15 C1         119.7630   110.7210    97.4330 c          1 82W       0.625100
     16 O1         119.6950   110.5660    96.2350 o          1 82W      -0.526000
     17 O6         120.7060   110.2060    98.2160 os         1 82W      -0.454100
     18 C17        121.5260   109.0890    97.7770 c3         1 82W       0.155300
     19 C18        122.6270   109.5310    96.7990 c3         1 82W       0.154300
     20 C19        123.2470   110.8630    97.1790 c3         1 82W      -0.082100
     21 O7         123.6820   108.5570    96.8580 oh         1 82W      -0.671000
     22 C16        120.6690   107.8390    97.3470 c3         1 82W      -0.039500
     23 C23        120.7500   107.4680    95.8610 c3         1 82W      -0.093100
     24 C15        119.2120   107.9700    97.7280 c2         1 82W      -0.206200
     25 C14        118.7110   108.1730    98.9440 c2         1 82W      -0.101400
     26 C22        119.5590   108.2630   100.1840 c3         1 82W      -0.047900
     27 C13        117.2420   108.4680    99.1280 c5         1 82W       0.224200
     28 C8         115.2370   107.6400    98.2060 c5         1 82W       0.152300
     29 C9         115.3570   106.1460    97.8950 c6         1 82W       0.163300
     30 O4         114.1480   105.4830    98.3370 os         1 82W      -0.478100
     31 C28        113.1070   105.4000    97.4870 c          1 82W       0.635700
     32 O8         113.1100   105.8610    96.3600 o          1 82W      -0.476000
     33 C27        111.9930   104.6920    98.0880 cc         1 82W      -0.253600
     34 C26        110.7420   104.4030    97.5600 cd         1 82W      -0.086000
     35 C25        110.0230   103.6940    98.5440 cd         1 82W      -0.199000
     36 C24        110.8530   103.5680    99.6480 cc         1 82W      -0.164000
     37 N1         112.0330   104.1710    99.3620 na         1 82W      -0.082000
     38 H2         115.7090   103.5900    99.1370 hc         1 82W       0.040367
     39 H3         116.4080   103.6580    97.5160 hc         1 82W       0.040367
     40 H4         117.4310   105.8730    98.0610 hc         1 82W       0.086700
     41 H5         115.9240   105.5960   100.6640 h1         1 82W       0.030700
     42 H6         118.0460   105.8310   101.4530 ho         1 82W       0.439000
     43 H7         116.6780   107.8920   101.1730 hc         1 82W       0.069700
     44 H8         114.3230   107.1970   100.1410 hc         1 82W       0.080700
     45 H9         113.6990   109.5510   100.3050 ha         1 82W       0.185000
     46 H10        115.4140   111.2770   100.2080 ha         1 82W       0.180000
     47 H11        117.7440   110.2100   100.3380 hc         1 82W       0.061700
     48 H12        116.7250   111.8090    98.4420 hc         1 82W       0.077200
     49 H13        117.1250   110.4730    97.3910 hc         1 82W       0.077200
     50 H14        119.2010   111.7320    99.2430 h1         1 82W       0.054700
     51 H15        119.4950   114.6030    97.1750 h1         1 82W       0.036700
     52 H16        120.1440   113.7890    98.6230 h1         1 82W       0.036700
     53 H17        120.5770   113.2060    96.9950 h1         1 82W       0.036700
     54 H18        122.0410   108.8360    98.7010 h1         1 82W       0.078700
     55 H19        122.2360   109.5900    95.7830 h1         1 82W       0.058700
     56 H20        122.5280   111.6750    97.0770 hc         1 82W       0.046033
     57 H21        123.6050   110.8440    98.2110 hc         1 82W       0.046033
     58 H22        124.0910   111.0660    96.5190 hc         1 82W       0.046033
     59 H23        123.3920   107.7460    96.4230 ho         1 82W       0.443000
     60 H24        121.1010   107.0100    97.9170 hc         1 82W       0.058700
     61 H25        121.7620   107.2430    95.5220 hc         1 82W       0.043033
     62 H26        120.1550   106.5690    95.6910 hc         1 82W       0.043033
     63 H27        120.3500   108.2650    95.2360 hc         1 82W       0.043033
     64 H28        118.5180   107.9510    96.8980 ha         1 82W       0.200000
     65 H29        119.0100   107.9590   101.0720 hc         1 82W       0.041367
     66 H30        120.4360   107.6210   100.0980 hc         1 82W       0.041367
     67 H31        119.9120   109.2830   100.3460 hc         1 82W       0.041367
     68 H32        114.4650   108.1050    97.5930 h1         1 82W       0.096700
     69 H33        115.4530   105.9960    96.8210 h1         1 82W       0.087700
     70 H34        110.4030   104.6800    96.5760 ha         1 82W       0.148000
     71 H35        109.0180   103.3150    98.4660 ha         1 82W       0.139000
     72 H36        110.6860   103.0970   100.6030 h4         1 82W       0.149000
     73 H37        112.8270   104.2350    99.9780 hn         1 82W       0.359000
     74 H1         117.4650   103.5840    98.9310 hc         1 82W       0.040367
@<TRIPOS>BOND
     1     1    13 1   
     2     1    14 1   
     3     2    27 1   
     4     2    28 1   
     5     3     4 1   
     6     3    38 1   
     7     3    39 1   
     8     3    74 1   
     9     4     5 1   
    10     4    29 1   
    11     4    40 1   
    12     5     6 1   
    13     5     7 1   
    14     5    41 1   
    15     6    42 1   
    16     7     8 1   
    17     7    27 1   
    18     7    43 1   
    19     8     9 1   
    20     8    28 1   
    21     8    44 1   
    22     9    10 2   
    23     9    45 1   
    24    10    11 1   
    25    10    46 1   
    26    11    12 1   
    27    11    27 1   
    28    11    47 1   
    29    12    13 1   
    30    12    48 1   
    31    12    49 1   
    32    13    15 1   
    33    13    50 1   
    34    14    51 1   
    35    14    52 1   
    36    14    53 1   
    37    15    16 2   
    38    15    17 1   
    39    17    18 1   
    40    18    19 1   
    41    18    22 1   
    42    18    54 1   
    43    19    20 1   
    44    19    21 1   
    45    19    55 1   
    46    20    56 1   
    47    20    57 1   
    48    20    58 1   
    49    21    59 1   
    50    22    23 1   
    51    22    24 1   
    52    22    60 1   
    53    23    61 1   
    54    23    62 1   
    55    23    63 1   
    56    24    25 2   
    57    24    64 1   
    58    25    26 1   
    59    25    27 1   
    60    26    65 1   
    61    26    66 1   
    62    26    67 1   
    63    28    29 1   
    64    28    68 1   
    65    29    30 1   
    66    29    69 1   
    67    30    31 1   
    68    31    32 2   
    69    31    33 1   
    70    33    34 2   
    71    33    37 1   
    72    34    35 1   
    73    34    70 1   
    74    35    36 2   
    75    35    71 1   
    76    36    37 1   
    77    36    72 1   
    78    37    73 1   
@<TRIPOS>SUBSTRUCTURE
     1 82W         1 TEMP              0 ****  ****    0 ROOT
