@<TRIPOS>MOLECULE
82X
   56    60     1     0     0
SMALL
abcg2


@<TRIPOS>ATOM
      1 C11         -2.6770    -1.4630     1.3130 ca         1 82X       0.152000
      2 C12         -1.9880    -2.6590     1.2000 ca         1 82X      -0.105000
      3 C13         -2.2210    -3.4690     0.1000 ca         1 82X      -0.080000
      4 C14         -3.1280    -3.0950    -0.8780 ca         1 82X      -0.105000
      5 C15         -3.8030    -1.8930    -0.7400 ca         1 82X       0.152000
      6 C19         -0.3470     1.1040    -0.6640 ca         1 82X       0.122100
      7 C20         -0.0020     1.4300    -1.9850 ca         1 82X      -0.199000
      8 C21          1.2690     1.1690    -2.4590 ca         1 82X      -0.050000
      9 C22          0.5810     0.5120     0.1840 ca         1 82X      -0.113000
     10 C23          1.8530     0.2660    -0.3070 ca         1 82X      -0.150000
     11 C24          2.2230     0.5790    -1.6270 ca         1 82X      -0.086800
     12 C25          3.5850     0.2340    -1.9010 cc         1 82X      -0.215200
     13 C26          4.2250    -0.3200    -0.8400 cd         1 82X       0.073400
     14 C29          6.3190    -1.0970    -1.9180 ca         1 82X      -0.111000
     15 C30          7.6360    -1.5160    -1.8390 ca         1 82X      -0.151000
     16 C2          -3.8800     1.4530    -0.1670 cc         1 82X      -0.206300
     17 C3          -4.2900     0.2400     0.4460 cc         1 82X       0.348500
     18 N4          -5.3880     0.3920     1.1210 nd         1 82X      -0.339300
     19 O5          -5.7320     1.7020     0.9740 os         1 82X      -0.070700
     20 C6          -4.8350     2.3370     0.2130 cd         1 82X       0.204300
     21 C7          -3.5990    -1.0550     0.3530 ca         1 82X      -0.122500
     22 C8          -5.0440     3.7880    -0.0520 c3         1 82X      -0.099000
     23 C9          -6.3740     4.0410    -0.7640 c3         1 82X      -0.086600
     24 C10         -4.9270     4.6110     1.2320 c3         1 82X      -0.086600
     25 CL16        -4.9250    -1.4140    -1.9640 cl         1 82X      -0.182500
     26 CL17        -2.3760    -0.4510     2.6780 cl         1 82X      -0.182500
     27 O18         -1.5600     1.3460    -0.1270 os         1 82X      -0.347100
     28 S27          3.1740    -0.4490     0.5550 ss         1 82X       0.080400
     29 C28          5.6100    -0.7820    -0.7550 ca         1 82X      -0.089800
     30 C31          8.2640    -1.6370    -0.6070 ca         1 82X      -0.069000
     31 C32          7.5760    -1.3370     0.5650 ca         1 82X      -0.139600
     32 C33          6.2560    -0.9120     0.4750 ca         1 82X      -0.067000
     33 C34          8.2550    -1.4620     1.9260 c          1 82X       0.713600
     34 O35          9.4450    -1.8260     1.9200 o          1 82X      -0.716500
     35 O36          7.5590    -1.1910     2.9230 o          1 82X      -0.716500
     36 H12         -1.2800    -2.9550     1.9610 ha         1 82X       0.136500
     37 H13         -1.6890    -4.4060     0.0040 ha         1 82X       0.126000
     38 H14         -3.3070    -3.7290    -1.7350 ha         1 82X       0.136500
     39 H20         -0.7190     1.9010    -2.6440 ha         1 82X       0.104000
     40 H21          1.5250     1.4300    -3.4780 ha         1 82X       0.108000
     41 H22          0.3020     0.2550     1.1990 ha         1 82X       0.133000
     42 H25          4.0590     0.4190    -2.8550 ha         1 82X       0.199000
     43 H8          -4.2370     4.0920    -0.7240 hc         1 82X       0.064700
     44 H9          -7.2230     3.8010    -0.1220 hc         1 82X       0.043367
     45 H9A         -6.4500     5.0930    -1.0360 hc         1 82X       0.043367
     46 H9B         -6.4590     3.4520    -1.6770 hc         1 82X       0.043367
     47 H10         -5.0000     5.6730     0.9940 hc         1 82X       0.043367
     48 H10A        -5.7270     4.3730     1.9340 hc         1 82X       0.043367
     49 H10B        -3.9730     4.4440     1.7300 hc         1 82X       0.043367
     50 H31          9.2930    -1.9670    -0.5520 ha         1 82X       0.130000
     51 H33          5.7360    -0.6670     1.3940 ha         1 82X       0.135000
     52 H29          5.8370    -1.0260    -2.8850 ha         1 82X       0.087000
     53 C1          -2.6550     1.6350    -0.9810 c3         1 82X       0.248900
     54 H30          8.1740    -1.7580    -2.7480 ha         1 82X       0.089000
     55 H1          -2.6620     0.9510    -1.8380 h1         1 82X       0.042700
     56 H1A         -2.5940     2.6530    -1.3780 h1         1 82X       0.042700
@<TRIPOS>BOND
     1     1     2 ar  
     2     1    21 ar  
     3     1    26 1   
     4     2     3 ar  
     5     2    36 1   
     6     3     4 ar  
     7     3    37 1   
     8     4     5 ar  
     9     4    38 1   
    10     5    21 ar  
    11     5    25 1   
    12     6     7 ar  
    13     6     9 ar  
    14     6    27 1   
    15     7     8 ar  
    16     7    39 1   
    17     8    11 ar  
    18     8    40 1   
    19     9    10 ar  
    20     9    41 1   
    21    10    11 ar  
    22    10    28 1   
    23    11    12 1   
    24    12    13 2   
    25    12    42 1   
    26    13    28 1   
    27    13    29 1   
    28    14    15 ar  
    29    14    29 ar  
    30    14    52 1   
    31    15    30 ar  
    32    15    54 1   
    33    16    17 1   
    34    16    20 2   
    35    16    53 1   
    36    17    18 2   
    37    17    21 1   
    38    18    19 1   
    39    19    20 1   
    40    20    22 1   
    41    22    23 1   
    42    22    24 1   
    43    22    43 1   
    44    23    44 1   
    45    23    45 1   
    46    23    46 1   
    47    24    47 1   
    48    24    48 1   
    49    24    49 1   
    50    27    53 1   
    51    29    32 ar  
    52    30    31 ar  
    53    30    50 1   
    54    31    32 ar  
    55    31    33 1   
    56    32    51 1   
    57    33    34 1   
    58    33    35 1   
    59    53    55 1   
    60    53    56 1   
@<TRIPOS>SUBSTRUCTURE
     1 82X         1 TEMP              0 ****  ****    0 ROOT
