@<TRIPOS>MOLECULE
82X
   56    60     1     0     0
SMALL
No Charge or Current Charge


@<TRIPOS>ATOM
      1 C11         -3.2080    -1.4400     2.0570 ca         1 82X       0.152000
      2 C12         -2.4560    -2.6230     2.1560 ca         1 82X      -0.105000
      3 C13         -2.0570    -3.3100     1.0010 ca         1 82X      -0.080000
      4 C14         -2.4270    -2.8170    -0.2580 ca         1 82X      -0.105000
      5 C15         -3.1750    -1.6330    -0.3680 ca         1 82X       0.152000
      6 C19         -0.3320     1.0130    -0.5670 ca         1 82X       0.122100
      7 C20          0.0800     1.6820    -1.7470 ca         1 82X      -0.199000
      8 C21          1.4110     1.5680    -2.1960 ca         1 82X      -0.050000
      9 C22          0.5920     0.2350     0.1560 ca         1 82X      -0.113000
     10 C23          1.9120     0.1350    -0.3110 ca         1 82X      -0.150000
     11 C24          2.3130     0.7850    -1.4580 ca         1 82X      -0.086800
     12 C25          3.7030     0.5610    -1.7760 cc         1 82X      -0.215200
     13 C26          4.3280    -0.2660    -0.8490 cd         1 82X       0.073400
     14 C29          6.6190    -0.2750    -1.9050 ca         1 82X      -0.111000
     15 C30          7.9600    -0.6860    -1.9250 ca         1 82X      -0.151000
     16 C2          -3.9790     1.4740    -0.0900 cc         1 82X      -0.206300
     17 C3          -4.3210     0.3400     0.6970 cc         1 82X       0.348500
     18 N4          -5.5140     0.4460     1.2660 nd         1 82X      -0.339300
     19 O5          -5.9880     1.7340     0.8590 os         1 82X      -0.070700
     20 C6          -5.0440     2.3070     0.0520 cd         1 82X       0.204300
     21 C7          -3.5570    -0.9110     0.7910 ca         1 82X      -0.122500
     22 C8          -5.2970     3.6890    -0.5080 c3         1 82X      -0.099000
     23 C9          -6.5980     3.7360    -1.3410 c3         1 82X      -0.086600
     24 C10         -5.2940     4.7570     0.6080 c3         1 82X      -0.086600
     25 Cl16        -3.7340    -1.1760    -1.9770 cl         1 82X      -0.182500
     26 Cl17        -3.6040    -0.5990     3.5580 cl         1 82X      -0.182500
     27 O18         -1.6210     1.0830    -0.0880 os         1 82X      -0.347100
     28 S27          3.2110    -0.7970     0.4560 ss         1 82X       0.080400
     29 C28          5.7500    -0.6980    -0.8750 ca         1 82X      -0.089800
     30 C31          8.4600    -1.5260    -0.9200 ca         1 82X      -0.069000
     31 C32          7.6210    -1.9680     0.1250 ca         1 82X      -0.139600
     32 C33          6.2690    -1.5460     0.1340 ca         1 82X      -0.067000
     33 C34          8.1590    -2.8790     1.2180 c          1 82X       0.713600
     34 O35          9.3330    -3.2190     1.1710 o          1 82X      -0.716500
     35 O36          7.4000    -3.2400     2.1060 o          1 82X      -0.716500
     36 H12         -2.1740    -3.0030     3.1350 ha         1 82X       0.136500
     37 H13         -1.4770    -4.2270     1.0810 ha         1 82X       0.126000
     38 H14         -2.1500    -3.3650    -1.1560 ha         1 82X       0.136500
     39 H20         -0.6120     2.2910    -2.3220 ha         1 82X       0.104000
     40 H21          1.7350     2.0790    -3.1000 ha         1 82X       0.108000
     41 H22          0.2820    -0.2830     1.0600 ha         1 82X       0.133000
     42 H25          4.1980     0.9900    -2.6400 ha         1 82X       0.199000
     43 H8          -4.4790     3.9420    -1.1930 hc         1 82X       0.064700
     44 H9          -7.4740     3.5260    -0.7140 hc         1 82X       0.043367
     45 H9A         -6.7320     4.7240    -1.7970 hc         1 82X       0.043367
     46 H9B         -6.5670     2.9920    -2.1460 hc         1 82X       0.043367
     47 H10         -5.4180     5.7610     0.1860 hc         1 82X       0.043367
     48 H10A        -6.1080     4.5810     1.3220 hc         1 82X       0.043367
     49 H10B        -4.3450     4.7350     1.1590 hc         1 82X       0.043367
     50 H31          9.5040    -1.8310    -0.9570 ha         1 82X       0.130000
     51 H33          5.6260    -1.8880     0.9390 ha         1 82X       0.135000
     52 H29          6.2700     0.3740    -2.7010 ha         1 82X       0.087000
     53 C1          -2.6810     1.7210    -0.8170 c3         1 82X       0.248900
     54 H30          8.6150    -0.3510    -2.7260 ha         1 82X       0.089000
     55 H1          -2.7480     1.3330    -1.8400 h1         1 82X       0.042700
     56 H1A         -2.4940     2.8000    -0.8780 h1         1 82X       0.042700
@<TRIPOS>BOND
     1     1     2 ar  
     2     1    21 ar  
     3     1    26 1   
     4     2     3 ar  
     5     2    36 1   
     6     3     4 ar  
     7     3    37 1   
     8     4     5 ar  
     9     4    38 1   
    10     5    21 ar  
    11     5    25 1   
    12     6     7 ar  
    13     6     9 ar  
    14     6    27 1   
    15     7     8 ar  
    16     7    39 1   
    17     8    11 ar  
    18     8    40 1   
    19     9    10 ar  
    20     9    41 1   
    21    10    11 ar  
    22    10    28 1   
    23    11    12 1   
    24    12    13 2   
    25    12    42 1   
    26    13    28 1   
    27    13    29 1   
    28    14    15 ar  
    29    14    29 ar  
    30    14    52 1   
    31    15    30 ar  
    32    15    54 1   
    33    16    17 1   
    34    16    20 2   
    35    16    53 1   
    36    17    18 2   
    37    17    21 1   
    38    18    19 1   
    39    19    20 1   
    40    20    22 1   
    41    22    23 1   
    42    22    24 1   
    43    22    43 1   
    44    23    44 1   
    45    23    45 1   
    46    23    46 1   
    47    24    47 1   
    48    24    48 1   
    49    24    49 1   
    50    27    53 1   
    51    29    32 ar  
    52    30    31 ar  
    53    30    50 1   
    54    31    32 ar  
    55    31    33 1   
    56    32    51 1   
    57    33    34 1   
    58    33    35 1   
    59    53    55 1   
    60    53    56 1   
@<TRIPOS>SUBSTRUCTURE
     1 82X         1 TEMP              0 ****  ****    0 ROOT
