@<TRIPOS>MOLECULE
82Y
   42    45     1     0     0
SMALL
abcg2


@<TRIPOS>ATOM
      1 C10          2.8230    -0.2600     0.7620 ca         1 82Y      -0.072000
      2 C15         -1.3230     1.3090     0.0600 cc         1 82Y       0.136100
      3 C17         -2.5970    -0.6280     0.0160 cc         1 82Y       0.388100
      4 C22         -3.7040    -2.7790    -0.0670 c6         1 82Y       0.179800
      5 C26         -1.2970    -2.6780     0.3660 c6         1 82Y       0.179800
      6 O01          6.8820    -1.3890     1.0060 oh         1 82Y      -0.433100
      7 N02          5.5880    -0.9680     0.9400 ns         1 82Y      -0.374400
      8 C03          5.1830    -0.3020    -0.1650 c          1 82Y       0.607700
      9 O04          5.8610    -0.1910    -1.1700 o          1 82Y      -0.556100
     10 C05          3.8090     0.2740    -0.0640 ca         1 82Y      -0.155600
     11 C06          3.4990     1.3720    -0.8610 ca         1 82Y      -0.072000
     12 C07          2.2360     1.9360    -0.8210 ca         1 82Y      -0.106500
     13 C08          1.2470     1.4090     0.0100 ca         1 82Y       0.018000
     14 C09          1.5570     0.3020     0.8000 ca         1 82Y      -0.106500
     15 C11         -0.0880     2.0180     0.0480 cc         1 82Y      -0.073000
     16 C12         -0.3410     3.3620     0.0570 cd         1 82Y      -0.229000
     17 S13         -2.0060     3.7550     0.0880 ss         1 82Y       0.354000
     18 C14         -2.4350     2.0960     0.0810 cd         1 82Y      -0.372600
     19 O16         -1.3920    -0.0300     0.0160 os         1 82Y      -0.213200
     20 C18         -3.7600     0.1000     0.0830 cd         1 82Y      -0.489200
     21 C19         -3.7730     1.5350     0.0970 c          1 82Y       0.641900
     22 O20         -4.7840     2.2350     0.1400 o          1 82Y      -0.567100
     23 N21         -2.4960    -1.9680    -0.0790 nh         1 82Y      -0.668400
     24 C23         -3.4490    -4.1090    -0.7530 c6         1 82Y       0.142100
     25 O24         -2.3410    -4.7830    -0.2070 os         1 82Y      -0.438000
     26 C25         -1.1790    -4.0030    -0.3590 c6         1 82Y       0.142100
     27 H1           3.0180    -1.1310     1.3750 ha         1 82Y       0.126000
     28 H3          -4.0510    -2.9330     0.9620 h1         1 82Y       0.062700
     29 H4          -4.4960    -2.2730    -0.6160 h1         1 82Y       0.062700
     30 H5          -0.4020    -2.0960     0.1590 h1         1 82Y       0.062700
     31 H6          -1.3480    -2.8440     1.4490 h1         1 82Y       0.062700
     32 H7           6.8580    -2.3420     0.8510 ho         1 82Y       0.450000
     33 H8           5.1740    -0.7800     1.8420 hn         1 82Y       0.330500
     34 H9           4.2470     1.7920    -1.5210 ha         1 82Y       0.126000
     35 H10          2.0140     2.7830    -1.4570 ha         1 82Y       0.122000
     36 H11          0.8190    -0.1230     1.4670 ha         1 82Y       0.122000
     37 H12          0.3940     4.1530     0.0660 h4         1 82Y       0.159000
     38 H13         -4.7090    -0.4120     0.1360 ha         1 82Y       0.211000
     39 H16         -4.3240    -4.7470    -0.6280 h1         1 82Y       0.060200
     40 H17         -3.3050    -3.9380    -1.8280 h1         1 82Y       0.060200
     41 H18         -0.9720    -3.8220    -1.4230 h1         1 82Y       0.060200
     42 H19         -0.3420    -4.5640     0.0570 h1         1 82Y       0.060200
@<TRIPOS>BOND
     1     1    10 ar  
     2     1    14 ar  
     3     1    27 1   
     4     2    15 1   
     5     2    18 2   
     6     2    19 1   
     7     3    19 1   
     8     3    20 2   
     9     3    23 1   
    10     4    23 1   
    11     4    24 1   
    12     4    28 1   
    13     4    29 1   
    14     5    23 1   
    15     5    26 1   
    16     5    30 1   
    17     5    31 1   
    18     6     7 1   
    19     6    32 1   
    20     7     8 1   
    21     7    33 1   
    22     8     9 2   
    23     8    10 1   
    24    10    11 ar  
    25    11    12 ar  
    26    11    34 1   
    27    12    13 ar  
    28    12    35 1   
    29    13    14 ar  
    30    13    15 1   
    31    14    36 1   
    32    15    16 2   
    33    16    17 1   
    34    16    37 1   
    35    17    18 1   
    36    18    21 1   
    37    20    21 1   
    38    20    38 1   
    39    21    22 2   
    40    24    25 1   
    41    24    39 1   
    42    24    40 1   
    43    25    26 1   
    44    26    41 1   
    45    26    42 1   
@<TRIPOS>SUBSTRUCTURE
     1 82Y         1 TEMP              0 ****  ****    0 ROOT
