@<TRIPOS>MOLECULE
82Y
   42    45     1     0     0
SMALL
No Charge or Current Charge


@<TRIPOS>ATOM
      1 C10          2.9420    -0.2290     0.4800 ca         1 82Y      -0.072000
      2 C15         -1.2930     1.3160    -0.0900 cc         1 82Y       0.136100
      3 C17         -2.6240    -0.6660    -0.0250 cc         1 82Y       0.388100
      4 C22         -3.9000    -2.8550     0.0860 c6         1 82Y       0.179800
      5 C26         -1.3880    -2.8230     0.3650 c6         1 82Y       0.179800
      6 O01          7.0280    -1.6040     0.9900 oh         1 82Y      -0.433100
      7 N02          5.6880    -1.1570     0.6630 ns         1 82Y      -0.374400
      8 C03          5.4650     0.1000     0.1080 c          1 82Y       0.607700
      9 O04          6.3880     0.7800    -0.3250 o          1 82Y      -0.556100
     10 C05          4.0240     0.5750     0.0530 ca         1 82Y      -0.155600
     11 C06          3.7350     1.8640    -0.4430 ca         1 82Y      -0.072000
     12 C07          2.4130     2.3360    -0.5070 ca         1 82Y      -0.106500
     13 C08          1.3270     1.5360    -0.0840 ca         1 82Y       0.018000
     14 C09          1.6210     0.2470     0.4100 ca         1 82Y      -0.106500
     15 C11         -0.0640     2.0360    -0.1580 cc         1 82Y      -0.073000
     16 C12         -0.2870     3.3990    -0.1780 cd         1 82Y      -0.229000
     17 S13         -2.0200     3.7980    -0.1700 ss         1 82Y       0.354000
     18 C14         -2.4130     2.0840    -0.1000 cd         1 82Y      -0.372600
     19 O16         -1.3730    -0.0630    -0.0760 os         1 82Y      -0.213200
     20 C18         -3.7610     0.1060    -0.0080 cd         1 82Y      -0.489200
     21 C19         -3.7430     1.5450    -0.0530 c          1 82Y       0.641900
     22 O20         -4.7580     2.2250    -0.0480 o          1 82Y      -0.567100
     23 N21         -2.6290    -2.0520     0.0060 nh         1 82Y      -0.668400
     24 C23         -3.7500    -4.2920    -0.4930 c6         1 82Y       0.142100
     25 O24         -2.5940    -4.9560     0.0620 os         1 82Y      -0.438000
     26 C25         -1.3670    -4.2570    -0.2370 c6         1 82Y       0.142100
     27 H1           3.1030    -1.2300     0.8720 ha         1 82Y       0.126000
     28 H3          -4.2300    -2.9240     1.1320 h1         1 82Y       0.062700
     29 H4          -4.7070    -2.3690    -0.4780 h1         1 82Y       0.062700
     30 H5          -0.4840    -2.3080     0.0140 h1         1 82Y       0.062700
     31 H6          -1.3060    -2.8990     1.4590 h1         1 82Y       0.062700
     32 H7           7.0820    -2.5000     0.5800 ho         1 82Y       0.450000
     33 H8           4.9310    -1.6270     1.1540 hn         1 82Y       0.330500
     34 H9           4.5390     2.5120    -0.7860 ha         1 82Y       0.126000
     35 H10          2.2470     3.3270    -0.9180 ha         1 82Y       0.122000
     36 H11          0.8330    -0.3980     0.7810 ha         1 82Y       0.122000
     37 H12          0.4260     4.2120    -0.1690 h4         1 82Y       0.159000
     38 H13         -4.7540    -0.3090     0.0430 ha         1 82Y       0.211000
     39 H16         -4.6490    -4.8800    -0.2630 h1         1 82Y       0.060200
     40 H17         -3.6480    -4.2430    -1.5860 h1         1 82Y       0.060200
     41 H18         -1.2370    -4.2010    -1.3270 h1         1 82Y       0.060200
     42 H19         -0.5190    -4.8210     0.1770 h1         1 82Y       0.060200
@<TRIPOS>BOND
     1     1    10 ar  
     2     1    14 ar  
     3     1    27 1   
     4     2    15 1   
     5     2    18 2   
     6     2    19 1   
     7     3    19 1   
     8     3    20 2   
     9     3    23 1   
    10     4    23 1   
    11     4    24 1   
    12     4    28 1   
    13     4    29 1   
    14     5    23 1   
    15     5    26 1   
    16     5    30 1   
    17     5    31 1   
    18     6     7 1   
    19     6    32 1   
    20     7     8 1   
    21     7    33 1   
    22     8     9 2   
    23     8    10 1   
    24    10    11 ar  
    25    11    12 ar  
    26    11    34 1   
    27    12    13 ar  
    28    12    35 1   
    29    13    14 ar  
    30    13    15 1   
    31    14    36 1   
    32    15    16 2   
    33    16    17 1   
    34    16    37 1   
    35    17    18 1   
    36    18    21 1   
    37    20    21 1   
    38    20    38 1   
    39    21    22 2   
    40    24    25 1   
    41    24    39 1   
    42    24    40 1   
    43    25    26 1   
    44    26    41 1   
    45    26    42 1   
@<TRIPOS>SUBSTRUCTURE
     1 82Y         1 TEMP              0 ****  ****    0 ROOT
