@<TRIPOS>MOLECULE
831
   62    66     1     0     0
SMALL
No Charge or Current Charge


@<TRIPOS>ATOM
      1 C1          10.5650     0.0180    -0.3500 c3         1 831       0.150600
      2 F1          -8.7730    -3.2080     0.4100 f          1 831      -0.110000
      3 N1          10.3580    -1.4470    -0.4330 n3         1 831      -0.714600
      4 O1          -4.0890    -0.3970    -0.7690 o          1 831      -0.571100
      5 C2          11.6350    -2.1910    -0.4810 c3         1 831       0.150600
      6 F2          -8.4850    -2.7450    -1.6940 f          1 831      -0.110000
      7 N2           2.3240     1.7470     1.1270 nc         1 831      -0.573100
      8 C3           9.4410    -1.9680     0.6120 c3         1 831       0.213100
      9 F3         -10.2940    -2.1070    -0.6840 f          1 831      -0.110000
     10 N3           2.0190     1.0160     0.0100 na         1 831       0.119900
     11 C4           8.0380    -1.3670     0.5500 ca         1 831      -0.089300
     12 N4           2.9330    -0.7060    -1.5210 nc         1 831      -0.637000
     13 C5           7.5930    -0.4810     1.5450 ca         1 831      -0.098000
     14 N5          -4.1270     1.7240     0.1260 ns         1 831      -0.141000
     15 C6           6.3010     0.0680     1.4830 ca         1 831      -0.107500
     16 C7           5.4140    -0.2530     0.4290 ca         1 831       0.005200
     17 C8           5.8790    -1.1450    -0.5670 ca         1 831      -0.107500
     18 C9           7.1720    -1.6940    -0.5050 ca         1 831      -0.098000
     19 C10          4.0520     0.3560     0.4060 cd         1 831      -0.211800
     20 C11          3.5680     1.3350     1.3350 cd         1 831       0.392500
     21 C12          2.9980     0.1580    -0.4600 cc         1 831       0.380500
     22 C13          1.7530    -0.6650    -2.1330 cd         1 831       0.373900
     23 C14          0.6640     0.1860    -1.7150 cd         1 831      -0.214000
     24 C15          0.7690     1.0380    -0.6180 cc         1 831       0.046000
     25 C16         -0.3690     1.9030    -0.2750 ca         1 831      -0.034000
     26 C17         -0.1750     3.2670     0.0180 ca         1 831      -0.078000
     27 C18         -1.2660     4.0870     0.3420 ca         1 831      -0.088000
     28 C19         -2.5640     3.5520     0.3710 ca         1 831      -0.148000
     29 C20         -2.7850     2.1960     0.0720 ca         1 831      -0.027000
     30 C21         -1.6790     1.3760    -0.2460 ca         1 831      -0.107000
     31 C22         -4.7150     0.5210    -0.2500 c          1 831       0.621700
     32 C23         -6.2050     0.4020     0.0110 ca         1 831      -0.162600
     33 C24         -6.9530     1.4460     0.6090 ca         1 831      -0.060000
     34 C25         -8.3300     1.2920     0.8380 ca         1 831      -0.124000
     35 C26         -8.9840     0.1060     0.4740 ca         1 831      -0.037000
     36 C27         -8.2630    -0.9440    -0.1310 ca         1 831      -0.205300
     37 C28         -6.8770    -0.7890    -0.3510 ca         1 831      -0.008000
     38 C29         -8.9580    -2.2520    -0.5270 c3         1 831       0.359300
     39 H1          11.0300     0.2940     0.6060 h1         1 831       0.030533
     40 H1A         11.2190     0.3630    -1.1620 h1         1 831       0.030533
     41 H1B          9.6130     0.5580    -0.4380 h1         1 831       0.030533
     42 H2          12.1990    -2.0620     0.4530 h1         1 831       0.030533
     43 H2A         11.4540    -3.2650    -0.6270 h1         1 831       0.030533
     44 H2B         12.2590    -1.8390    -1.3120 h1         1 831       0.030533
     45 H3           9.3420    -3.0570     0.5050 h1         1 831       0.035700
     46 H3A          9.8680    -1.7860     1.6080 h1         1 831       0.035700
     47 H5           8.2500    -0.2140     2.3700 ha         1 831       0.115000
     48 HN5         -4.7750     2.3950     0.5150 hn         1 831       0.155000
     49 H6           6.0020     0.7450     2.2780 ha         1 831       0.119000
     50 H8           5.2610    -1.4270    -1.4100 ha         1 831       0.119000
     51 H9           7.5050    -2.3740    -1.2860 ha         1 831       0.115000
     52 H11          4.0980     1.7640     2.1750 h4         1 831       0.048800
     53 H13          1.6690    -1.3270    -2.9850 h4         1 831       0.032100
     54 H14         -0.2540     0.1540    -2.2910 ha         1 831       0.146000
     55 H17          0.8230     3.6970    -0.0120 ha         1 831       0.136000
     56 H18         -1.1060     5.1390     0.5680 ha         1 831       0.120000
     57 H19         -3.4010     4.2000     0.6230 ha         1 831       0.112000
     58 H21         -1.8140     0.3190    -0.4520 ha         1 831       0.153000
     59 H24         -6.4870     2.3820     0.9080 ha         1 831       0.118000
     60 H25         -8.8940     2.0980     1.3020 ha         1 831       0.127000
     61 H26        -10.0510     0.0100     0.6680 ha         1 831       0.136000
     62 H28         -6.3170    -1.6050    -0.8060 ha         1 831       0.153000
@<TRIPOS>BOND
     1     1     3 1   
     2     1    39 1   
     3     1    40 1   
     4     1    41 1   
     5     2    38 1   
     6     3     5 1   
     7     3     8 1   
     8     4    31 2   
     9     5    42 1   
    10     5    43 1   
    11     5    44 1   
    12     6    38 1   
    13     7    10 1   
    14     7    20 2   
    15     8    11 1   
    16     8    45 1   
    17     8    46 1   
    18     9    38 1   
    19    10    21 1   
    20    10    24 1   
    21    11    13 ar  
    22    11    18 ar  
    23    12    21 1   
    24    12    22 2   
    25    13    15 ar  
    26    13    47 1   
    27    14    29 1   
    28    14    31 1   
    29    14    48 1   
    30    15    16 ar  
    31    15    49 1   
    32    16    17 ar  
    33    16    19 1   
    34    17    18 ar  
    35    17    50 1   
    36    18    51 1   
    37    19    20 1   
    38    19    21 2   
    39    20    52 1   
    40    22    23 1   
    41    22    53 1   
    42    23    24 2   
    43    23    54 1   
    44    24    25 1   
    45    25    26 ar  
    46    25    30 ar  
    47    26    27 ar  
    48    26    55 1   
    49    27    28 ar  
    50    27    56 1   
    51    28    29 ar  
    52    28    57 1   
    53    29    30 ar  
    54    30    58 1   
    55    31    32 1   
    56    32    33 ar  
    57    32    37 ar  
    58    33    34 ar  
    59    33    59 1   
    60    34    35 ar  
    61    34    60 1   
    62    35    36 ar  
    63    35    61 1   
    64    36    37 ar  
    65    36    38 1   
    66    37    62 1   
@<TRIPOS>SUBSTRUCTURE
     1 831         1 TEMP              0 ****  ****    0 ROOT
