@<TRIPOS>MOLECULE
831
   62    66     1     0     0
SMALL
abcg2


@<TRIPOS>ATOM
      1 C1          10.2520    -0.3510    -0.9870 c3         1 831       0.150600
      2 F1          -8.1120    -2.9370     1.2770 f          1 831      -0.110000
      3 N1           9.9700    -1.7270    -0.6410 n3         1 831      -0.714600
      4 O1          -3.7870    -0.4060    -0.4950 o          1 831      -0.571100
      5 C2          11.1680    -2.5350    -0.6980 c3         1 831       0.150600
      6 F2          -7.9130    -3.3320    -0.8250 f          1 831      -0.110000
      7 N2           2.1430     1.5300     1.4200 nc         1 831      -0.573100
      8 C3           9.3160    -1.8390     0.6480 c3         1 831       0.213100
      9 F3          -9.7580    -2.5400    -0.0510 f          1 831      -0.110000
     10 N3           1.9230     1.1020     0.1790 na         1 831       0.119900
     11 C4           7.9360    -1.2400     0.6440 ca         1 831      -0.089300
     12 N4           2.9820    -0.1190    -1.5710 nc         1 831      -0.637000
     13 C5           7.5540    -0.2910     1.5840 ca         1 831      -0.098000
     14 N5          -4.0660     1.7420     0.1990 ns         1 831      -0.141000
     15 C6           6.2770     0.2500     1.5820 ca         1 831      -0.107500
     16 C7           5.3300    -0.1420     0.6330 ca         1 831       0.005200
     17 C8           5.7180    -1.0960    -0.3150 ca         1 831      -0.107500
     18 C9           6.9970    -1.6290    -0.3090 ca         1 831      -0.098000
     19 C10          3.9870     0.4290     0.6520 cd         1 831      -0.211800
     20 C11          3.3730     1.1330     1.6980 cd         1 831       0.392500
     21 C12          3.0100     0.4120    -0.3430 cc         1 831       0.380500
     22 C13          1.8800     0.0250    -2.2560 cd         1 831       0.373900
     23 C14          0.7460     0.7110    -1.7760 cd         1 831      -0.214000
     24 C15          0.7710     1.2680    -0.5280 cc         1 831       0.046000
     25 C16         -0.3580     2.0180     0.0420 ca         1 831      -0.034000
     26 C17         -0.1770     3.2470     0.6710 ca         1 831      -0.078000
     27 C18         -1.2900     3.9450     1.1130 ca         1 831      -0.088000
     28 C19         -2.5620     3.4250     0.9510 ca         1 831      -0.148000
     29 C20         -2.7480     2.1890     0.3300 ca         1 831      -0.027000
     30 C21         -1.6360     1.4880    -0.1310 ca         1 831      -0.107000
     31 C22         -4.5130     0.5280    -0.2050 c          1 831       0.621700
     32 C23         -6.0010     0.3880    -0.2590 ca         1 831      -0.162600
     33 C24         -6.8580     1.4590    -0.5060 ca         1 831      -0.060000
     34 C25         -8.2260     1.2540    -0.5730 ca         1 831      -0.124000
     35 C26         -8.7570    -0.0140    -0.3870 ca         1 831      -0.037000
     36 C27         -7.9040    -1.0830    -0.1470 ca         1 831      -0.205300
     37 C28         -6.5310    -0.8860    -0.0940 ca         1 831      -0.008000
     38 C29         -8.4300    -2.4700     0.0620 c3         1 831       0.359300
     39 H1          10.9570     0.1320    -0.2920 h1         1 831       0.030533
     40 H1A         10.6860    -0.3020    -1.9870 h1         1 831       0.030533
     41 H1B          9.3350     0.2380    -0.9940 h1         1 831       0.030533
     42 H2          11.9410    -2.2240     0.0230 h1         1 831       0.030533
     43 H2A         10.9270    -3.5800    -0.4970 h1         1 831       0.030533
     44 H2B         11.6070    -2.4780    -1.6950 h1         1 831       0.030533
     45 H3           9.2410    -2.9040     0.8920 h1         1 831       0.035700
     46 H3A          9.9100    -1.3800     1.4580 h1         1 831       0.035700
     47 H5           8.2680     0.0440     2.3280 ha         1 831       0.115000
     48 HN5         -4.7610     2.3960     0.5270 hn         1 831       0.155000
     49 H6           6.0300     1.0000     2.3230 ha         1 831       0.119000
     50 H8           5.0140    -1.4260    -1.0660 ha         1 831       0.119000
     51 H9           7.2690    -2.3580    -1.0620 ha         1 831       0.115000
     52 H11          3.7860     1.3590     2.6700 h4         1 831       0.048800
     53 H13          1.8570    -0.4060    -3.2500 h4         1 831       0.032100
     54 H14         -0.1270     0.8190    -2.4020 ha         1 831       0.146000
     55 H17          0.8100     3.6650     0.8020 ha         1 831       0.136000
     56 H18         -1.1660     4.9060     1.5930 ha         1 831       0.120000
     57 H19         -3.4190     3.9830     1.3110 ha         1 831       0.112000
     58 H21         -1.7500     0.5290    -0.6090 ha         1 831       0.153000
     59 H24         -6.4730     2.4570    -0.6760 ha         1 831       0.118000
     60 H25         -8.8850     2.0870    -0.7750 ha         1 831       0.127000
     61 H26         -9.8280    -0.1500    -0.4360 ha         1 831       0.136000
     62 H28         -5.8600    -1.7170     0.0810 ha         1 831       0.153000
@<TRIPOS>BOND
     1     1     3 1   
     2     1    39 1   
     3     1    40 1   
     4     1    41 1   
     5     2    38 1   
     6     3     5 1   
     7     3     8 1   
     8     4    31 2   
     9     5    42 1   
    10     5    43 1   
    11     5    44 1   
    12     6    38 1   
    13     7    10 1   
    14     7    20 2   
    15     8    11 1   
    16     8    45 1   
    17     8    46 1   
    18     9    38 1   
    19    10    21 1   
    20    10    24 1   
    21    11    13 ar  
    22    11    18 ar  
    23    12    21 1   
    24    12    22 2   
    25    13    15 ar  
    26    13    47 1   
    27    14    29 1   
    28    14    31 1   
    29    14    48 1   
    30    15    16 ar  
    31    15    49 1   
    32    16    17 ar  
    33    16    19 1   
    34    17    18 ar  
    35    17    50 1   
    36    18    51 1   
    37    19    20 1   
    38    19    21 2   
    39    20    52 1   
    40    22    23 1   
    41    22    53 1   
    42    23    24 2   
    43    23    54 1   
    44    24    25 1   
    45    25    26 ar  
    46    25    30 ar  
    47    26    27 ar  
    48    26    55 1   
    49    27    28 ar  
    50    27    56 1   
    51    28    29 ar  
    52    28    57 1   
    53    29    30 ar  
    54    30    58 1   
    55    31    32 1   
    56    32    33 ar  
    57    32    37 ar  
    58    33    34 ar  
    59    33    59 1   
    60    34    35 ar  
    61    34    60 1   
    62    35    36 ar  
    63    35    61 1   
    64    36    37 ar  
    65    36    38 1   
    66    37    62 1   
@<TRIPOS>SUBSTRUCTURE
     1 831         1 TEMP              0 ****  ****    0 ROOT
