@<TRIPOS>MOLECULE
833
   27    29     1     0     0
SMALL
No Charge or Current Charge


@<TRIPOS>ATOM
      1 C1           0.9630     0.8160    -0.0790 ca         1 833      -0.071000
      2 C2           0.1080    -0.3180    -0.0220 ca         1 833      -0.112500
      3 C3           0.6990    -1.6140     0.0100 ca         1 833      -0.097000
      4 C4           2.1010    -1.7760    -0.0130 ca         1 833      -0.103000
      5 C5           2.8970    -0.6290    -0.0720 ca         1 833       0.055100
      6 C6           2.3490     0.6190    -0.1040 ca         1 833       0.044100
      7 O7           3.2890     1.5970    -0.1510 os         1 833      -0.345100
      8 C8           4.5490     0.8360    -0.2000 c5         1 833       0.373600
      9 O9           4.2540    -0.6030    -0.0950 os         1 833      -0.345100
     10 C10         -1.3570    -0.1410     0.0040 cc         1 833       0.333500
     11 C11         -2.3010    -1.1870     0.0600 cc         1 833      -0.278000
     12 C12         -3.5220    -0.6150     0.0670 cd         1 833       0.201000
     13 N13         -3.2830     0.7660     0.0150 na         1 833       0.111800
     14 N14         -1.9240     1.0570    -0.0250 nd         1 833      -0.524800
     15 N15         -4.7630    -1.1960     0.1130 nv         1 833      -1.045000
     16 C16         -4.2880     1.8410     0.0020 c3         1 833       0.069900
     17 H1           0.5660     1.8280    -0.1040 ha         1 833       0.149000
     18 H3           0.0820    -2.5070     0.0550 ha         1 833       0.119000
     19 H4           2.5520    -2.7650     0.0140 ha         1 833       0.132000
     20 H8           5.0500     1.0320    -1.1560 h2         1 833       0.062700
     21 H8A          5.1940     1.1400     0.6320 h2         1 833       0.062700
     22 H11         -2.0880    -2.2470     0.0910 ha         1 833       0.144000
     23 HN15        -4.8600    -2.2110     0.0900 hn         1 833       0.446500
     24 HN1A        -5.6110    -0.6340     0.0470 hn         1 833       0.446500
     25 H16         -4.9080     1.7720     0.9030 h1         1 833       0.056367
     26 H16A        -3.7920     2.8190    -0.0210 h1         1 833       0.056367
     27 H16B        -4.9220     1.7370    -0.8870 h1         1 833       0.056367
@<TRIPOS>BOND
     1     1     2 ar  
     2     1     6 ar  
     3     1    17 1   
     4     2     3 ar  
     5     2    10 1   
     6     3     4 ar  
     7     3    18 1   
     8     4     5 ar  
     9     4    19 1   
    10     5     6 ar  
    11     5     9 1   
    12     6     7 1   
    13     7     8 1   
    14     8     9 1   
    15     8    20 1   
    16     8    21 1   
    17    10    11 1   
    18    10    14 2   
    19    11    12 2   
    20    11    22 1   
    21    12    13 1   
    22    12    15 1   
    23    13    14 1   
    24    13    16 1   
    25    15    23 1   
    26    15    24 1   
    27    16    25 1   
    28    16    26 1   
    29    16    27 1   
@<TRIPOS>SUBSTRUCTURE
     1 833         1 TEMP              0 ****  ****    0 ROOT
