@<TRIPOS>MOLECULE
833
   27    29     1     0     0
SMALL
abcg2


@<TRIPOS>ATOM
      1 C1           0.9190     0.7990    -0.0380 ca         1 833      -0.071000
      2 C2           0.1190    -0.3590     0.0140 ca         1 833      -0.112500
      3 C3           0.7210    -1.6130     0.0410 ca         1 833      -0.097000
      4 C4           2.1100    -1.7730     0.0180 ca         1 833      -0.103000
      5 C5           2.8660    -0.6300    -0.0320 ca         1 833       0.055100
      6 C6           2.2770     0.6250    -0.0600 ca         1 833       0.044100
      7 O7           3.2470     1.5730    -0.0840 os         1 833      -0.345100
      8 C8           4.4730     0.8810    -0.2780 c5         1 833       0.373600
      9 O9           4.2150    -0.4960    -0.0380 os         1 833      -0.345100
     10 C10         -1.3410    -0.2320     0.0390 cc         1 833       0.333500
     11 C11         -2.3050    -1.2600     0.0960 cc         1 833      -0.278000
     12 C12         -3.5160    -0.5960     0.1000 cd         1 833       0.201000
     13 N13         -3.2340     0.7210     0.0560 na         1 833       0.111800
     14 N14         -1.9150     0.9570     0.0040 nd         1 833      -0.524800
     15 N15         -4.8080    -1.0570     0.2120 nv         1 833      -1.045000
     16 C16         -4.1850     1.8030     0.0250 c3         1 833       0.069900
     17 H1           0.4750     1.7850    -0.0560 ha         1 833       0.149000
     18 H3           0.1060    -2.5030     0.0790 ha         1 833       0.119000
     19 H4           2.5600    -2.7570     0.0430 ha         1 833       0.132000
     20 H8           4.8210     1.0200    -1.3080 h2         1 833       0.062700
     21 H8A          5.2180     1.2450     0.4290 h2         1 833       0.062700
     22 H11         -2.1600    -2.3280     0.1270 ha         1 833       0.144000
     23 HN15        -4.8770    -2.0570     0.1050 hn         1 833       0.446500
     24 HN1A        -5.4780    -0.6020    -0.3920 hn         1 833       0.446500
     25 H16         -4.9320     1.6730     0.8080 h1         1 833       0.056367
     26 H16A        -3.6530     2.7330     0.2020 h1         1 833       0.056367
     27 H16B        -4.6920     1.8660    -0.9390 h1         1 833       0.056367
@<TRIPOS>BOND
     1     1     2 ar  
     2     1     6 ar  
     3     1    17 1   
     4     2     3 ar  
     5     2    10 1   
     6     3     4 ar  
     7     3    18 1   
     8     4     5 ar  
     9     4    19 1   
    10     5     6 ar  
    11     5     9 1   
    12     6     7 1   
    13     7     8 1   
    14     8     9 1   
    15     8    20 1   
    16     8    21 1   
    17    10    11 1   
    18    10    14 2   
    19    11    12 2   
    20    11    22 1   
    21    12    13 1   
    22    12    15 1   
    23    13    14 1   
    24    13    16 1   
    25    15    23 1   
    26    15    24 1   
    27    16    25 1   
    28    16    26 1   
    29    16    27 1   
@<TRIPOS>SUBSTRUCTURE
     1 833         1 TEMP              0 ****  ****    0 ROOT
