@<TRIPOS>MOLECULE
834
   54    57     1     0     0
SMALL
No Charge or Current Charge


@<TRIPOS>ATOM
      1 C1           1.6770    -1.4290     2.2900 ca         1 834      -0.095000
      2 C2           1.3440    -2.6750     2.8460 ca         1 834      -0.122000
      3 C3           1.7510    -3.8580     2.2130 ca         1 834      -0.090000
      4 C4           2.4940    -3.7920     1.0240 ca         1 834      -0.110000
      5 C5           2.8320    -2.5470     0.4620 ca         1 834       0.161000
      6 C6           2.4170    -1.3470     1.0870 ca         1 834      -0.115500
      7 C7           2.7720    -0.0280     0.5480 cc         1 834       0.473000
      8 Cl8          3.7160    -2.5520    -1.0660 cl         1 834      -0.164000
      9 N9           3.9820     0.3390     0.1540 nd         1 834      -0.642000
     10 C10          3.8490     1.6440    -0.2680 cd         1 834       0.251300
     11 C11          2.5560     2.0950    -0.1260 cc         1 834      -0.160300
     12 N12          1.8830     1.0380     0.4570 na         1 834      -0.020800
     13 C13          5.0270     2.3970    -0.8230 c3         1 834      -0.107400
     14 C17          1.9790     3.4520    -0.4830 c3         1 834       0.016600
     15 N18          0.4810     0.9480     0.5960 ns         1 834      -0.417200
     16 C19         -0.2780     0.2840    -0.3500 c          1 834       0.622700
     17 C24          0.9770     3.3820    -1.6560 c3         1 834      -0.085600
     18 C28          1.3860     4.1810     0.7420 c3         1 834      -0.085600
     19 O34          0.2280    -0.2220    -1.3430 o          1 834      -0.537100
     20 C35         -1.7560     0.1690    -0.0260 ca         1 834      -0.160600
     21 C36         -2.1530     0.0640     1.3310 ca         1 834      -0.086000
     22 C37         -3.5040    -0.0650     1.6820 ca         1 834      -0.121000
     23 C38         -4.4850    -0.0970     0.6880 ca         1 834       0.086100
     24 C39         -4.1160    -0.0160    -0.6780 ca         1 834       0.040100
     25 C40         -2.7550     0.1380    -1.0440 ca         1 834      -0.005300
     26 C41         -2.3880     0.2920    -2.5250 c3         1 834      -0.047800
     27 O47         -5.8100    -0.2120     1.0630 os         1 834      -0.327100
     28 C48         -6.8140     0.0720     0.0660 c6         1 834       0.116600
     29 C49         -6.4020    -0.5600    -1.2770 c6         1 834       0.117600
     30 O50         -5.0940    -0.0820    -1.6580 os         1 834      -0.328100
     31 H1           1.3690    -0.5220     2.8060 ha         1 834       0.114000
     32 H2           0.7740    -2.7220     3.7710 ha         1 834       0.117000
     33 H3           1.4930    -4.8240     2.6420 ha         1 834       0.118000
     34 H4           2.8050    -4.7080     0.5290 ha         1 834       0.132000
     35 H13          5.9320     1.7780    -0.8380 hc         1 834       0.043367
     36 H13A         4.8300     2.7260    -1.8500 hc         1 834       0.043367
     37 H13B         5.2400     3.2870    -0.2190 hc         1 834       0.043367
     38 H17          2.8070     4.0800    -0.8330 hc         1 834       0.059700
     39 HN18         0.0340     1.3390     1.4160 hn         1 834       0.346500
     40 H24          0.0500     2.8780    -1.3610 hc         1 834       0.036700
     41 H24A         0.7160     4.3910    -1.9980 hc         1 834       0.036700
     42 H24B         1.4130     2.8380    -2.5030 hc         1 834       0.036700
     43 H28          1.0940     5.2050     0.4770 hc         1 834       0.036700
     44 H28A         0.4980     3.6650     1.1240 hc         1 834       0.036700
     45 H28B         2.1260     4.2380     1.5500 hc         1 834       0.036700
     46 H36         -1.4150     0.0550     2.1310 ha         1 834       0.122000
     47 H37         -3.7900    -0.1440     2.7280 ha         1 834       0.133000
     48 H41         -1.9770    -0.6410    -2.9260 hc         1 834       0.056033
     49 H41A        -3.2470     0.5650    -3.1490 hc         1 834       0.056033
     50 H41B        -1.6450     1.0840    -2.6730 hc         1 834       0.056033
     51 H48         -7.7840    -0.3220     0.4020 h1         1 834       0.070200
     52 H48A        -6.9040     1.1610    -0.0520 h1         1 834       0.070200
     53 H49         -6.3680    -1.6540    -1.1740 h1         1 834       0.071200
     54 H49A        -7.1260    -0.3080    -2.0640 h1         1 834       0.071200
@<TRIPOS>BOND
     1     1     2 ar  
     2     1     6 ar  
     3     1    31 1   
     4     2     3 ar  
     5     2    32 1   
     6     3     4 ar  
     7     3    33 1   
     8     4     5 ar  
     9     4    34 1   
    10     5     6 ar  
    11     5     8 1   
    12     6     7 1   
    13     7     9 2   
    14     7    12 1   
    15     9    10 1   
    16    10    11 2   
    17    10    13 1   
    18    11    12 1   
    19    11    14 1   
    20    12    15 1   
    21    13    35 1   
    22    13    36 1   
    23    13    37 1   
    24    14    17 1   
    25    14    18 1   
    26    14    38 1   
    27    15    16 1   
    28    15    39 1   
    29    16    19 2   
    30    16    20 1   
    31    17    40 1   
    32    17    41 1   
    33    17    42 1   
    34    18    43 1   
    35    18    44 1   
    36    18    45 1   
    37    20    21 ar  
    38    20    25 ar  
    39    21    22 ar  
    40    21    46 1   
    41    22    23 ar  
    42    22    47 1   
    43    23    24 ar  
    44    23    27 1   
    45    24    25 ar  
    46    24    30 1   
    47    25    26 1   
    48    26    48 1   
    49    26    49 1   
    50    26    50 1   
    51    27    28 1   
    52    28    29 1   
    53    28    51 1   
    54    28    52 1   
    55    29    30 1   
    56    29    53 1   
    57    29    54 1   
@<TRIPOS>SUBSTRUCTURE
     1 834         1 TEMP              0 ****  ****    0 ROOT
