@<TRIPOS>MOLECULE
834
   54    57     1     0     0
SMALL
bcc


@<TRIPOS>ATOM
      1 C1           1.6380    -1.1720     2.4710 ca         1 834      -0.113000
      2 C2           1.1890    -2.3370     3.0720 ca         1 834      -0.140000
      3 C3           1.3410    -3.5500     2.4170 ca         1 834      -0.108000
      4 C4           1.9330    -3.5970     1.1640 ca         1 834      -0.128000
      5 C5           2.3720    -2.4230     0.5700 ca         1 834       0.069400
      6 C6           2.2390    -1.1940     1.2120 ca         1 834      -0.115500
      7 C7           2.6970     0.0590     0.6050 cc         1 834       0.473000
      8 CL8          3.0690    -2.5100    -1.0100 cl         1 834      -0.072400
      9 N9           3.9110     0.3840     0.2710 nd         1 834      -0.642000
     10 C10          3.8480     1.6560    -0.2430 cd         1 834       0.316600
     11 C11          2.5590     2.1160    -0.2300 cc         1 834      -0.174900
     12 N12          1.8390     1.0820     0.3360 na         1 834      -0.071500
     13 C13          5.0800     2.3500    -0.7100 c3         1 834      -0.107400
     14 C17          1.9830     3.4310    -0.6460 c3         1 834       0.016600
     15 N18          0.4880     0.9920     0.4350 ns         1 834      -0.484200
     16 C19         -0.2140     0.2440    -0.4690 c          1 834       0.689700
     17 C24          1.0030     3.3310    -1.8170 c3         1 834      -0.085600
     18 C28          1.3600     4.1920     0.5270 c3         1 834      -0.085600
     19 O34          0.3080    -0.2200    -1.4590 o          1 834      -0.537100
     20 C35         -1.6420     0.0500    -0.1010 ca         1 834      -0.160600
     21 C36         -1.9340    -0.4140     1.1810 ca         1 834      -0.104000
     22 C37         -3.2350    -0.6920     1.5510 ca         1 834      -0.139000
     23 C38         -4.2630    -0.5090     0.6370 ca         1 834       0.086100
     24 C39         -3.9700    -0.0640    -0.6570 ca         1 834       0.040100
     25 C40         -2.6610     0.2310    -1.0430 ca         1 834      -0.005300
     26 C41         -2.4290     0.7420    -2.4360 c3         1 834      -0.047800
     27 O47         -5.5240    -0.7740     1.0340 os         1 834      -0.303900
     28 C48         -6.5400    -0.2780     0.1720 c6         1 834       0.093400
     29 C49         -6.1720    -0.5510    -1.2640 c6         1 834       0.094400
     30 O50         -4.9470     0.0940    -1.5800 os         1 834      -0.304900
     31 H1           1.5360    -0.2280     2.9910 ha         1 834       0.132000
     32 H2           0.7290    -2.2950     4.0500 ha         1 834       0.135000
     33 H3           1.0000    -4.4680     2.8770 ha         1 834       0.136000
     34 H4           2.0500    -4.5410     0.6490 ha         1 834       0.150000
     35 H13          5.6220     1.7370    -1.4320 hc         1 834       0.043367
     36 H13A         4.8510     3.3000    -1.1900 hc         1 834       0.043367
     37 H13B         5.7630     2.5550     0.1170 hc         1 834       0.043367
     38 H17          2.8390     4.0170    -0.9920 hc         1 834       0.059700
     39 HN18         0.0560     1.3670     1.2660 hn         1 834       0.346500
     40 H24          0.0550     2.8900    -1.5090 hc         1 834       0.036700
     41 H24A         0.7830     4.3280    -2.2010 hc         1 834       0.036700
     42 H24B         1.4080     2.7350    -2.6340 hc         1 834       0.036700
     43 H28          1.0980     5.2050     0.2200 hc         1 834       0.036700
     44 H28A         0.4430     3.7140     0.8740 hc         1 834       0.036700
     45 H28B         2.0460     4.2630     1.3710 hc         1 834       0.036700
     46 H36         -1.1400    -0.5870     1.8970 ha         1 834       0.140000
     47 H37         -3.4630    -1.0530     2.5450 ha         1 834       0.151000
     48 H41         -2.4920    -0.0670    -3.1660 hc         1 834       0.056033
     49 H41A        -3.1780     1.4830    -2.7100 hc         1 834       0.056033
     50 H41B        -1.4540     1.2060    -2.5510 hc         1 834       0.056033
     51 H48         -7.4630    -0.7900     0.4370 h1         1 834       0.070200
     52 H48A        -6.6780     0.7950     0.3360 h1         1 834       0.070200
     53 H49         -6.0850    -1.6280    -1.4390 h1         1 834       0.071200
     54 H49A        -6.9290    -0.1510    -1.9370 h1         1 834       0.071200
@<TRIPOS>BOND
     1     1     2 ar  
     2     1     6 ar  
     3     1    31 1   
     4     2     3 ar  
     5     2    32 1   
     6     3     4 ar  
     7     3    33 1   
     8     4     5 ar  
     9     4    34 1   
    10     5     6 ar  
    11     5     8 1   
    12     6     7 1   
    13     7     9 2   
    14     7    12 1   
    15     9    10 1   
    16    10    11 2   
    17    10    13 1   
    18    11    12 1   
    19    11    14 1   
    20    12    15 1   
    21    13    35 1   
    22    13    36 1   
    23    13    37 1   
    24    14    17 1   
    25    14    18 1   
    26    14    38 1   
    27    15    16 1   
    28    15    39 1   
    29    16    19 2   
    30    16    20 1   
    31    17    40 1   
    32    17    41 1   
    33    17    42 1   
    34    18    43 1   
    35    18    44 1   
    36    18    45 1   
    37    20    21 ar  
    38    20    25 ar  
    39    21    22 ar  
    40    21    46 1   
    41    22    23 ar  
    42    22    47 1   
    43    23    24 ar  
    44    23    27 1   
    45    24    25 ar  
    46    24    30 1   
    47    25    26 1   
    48    26    48 1   
    49    26    49 1   
    50    26    50 1   
    51    27    28 1   
    52    28    29 1   
    53    28    51 1   
    54    28    52 1   
    55    29    30 1   
    56    29    53 1   
    57    29    54 1   
@<TRIPOS>SUBSTRUCTURE
     1 834         1 TEMP              0 ****  ****    0 ROOT
