@<TRIPOS>MOLECULE
835
   35    37     1     0     0
SMALL
No Charge or Current Charge


@<TRIPOS>ATOM
      1 O2          22.9370   -15.5080     0.3550 o          1 835      -0.503000
      2 C3          23.7820   -15.0360    -0.3910 c          1 835       0.586000
      3 N1          23.7220   -15.2770    -1.7360 ns         1 835      -0.476500
      4 C4          24.4650   -14.7280    -2.7410 c          1 835       0.582000
      5 O1          24.3250   -15.0920    -3.8960 o          1 835      -0.511000
      6 C5          25.5090   -13.6800    -2.3370 c6         1 835      -0.163400
      7 C1          26.0600   -13.8780    -0.9050 c6         1 835      -0.083400
      8 C2          24.9140   -14.0960     0.1200 c6         1 835       0.027700
      9 N2          25.4510   -14.3990     1.4970 n          1 835      -0.326300
     10 C9          25.8150   -15.7120     1.8140 c          1 835       0.596600
     11 O3          25.7810   -16.6000     0.9680 o          1 835      -0.582000
     12 C8          26.2580   -15.9540     3.2120 ca         1 835      -0.284600
     13 C13         26.6460   -17.2250     3.6910 ca         1 835       0.413000
     14 N4          26.6700   -18.3230     2.8910 nv         1 835      -1.104000
     15 C12         27.0280   -17.3980     5.0240 ca         1 835      -0.238000
     16 C11         27.0400   -16.3090     5.8990 ca         1 835      -0.016000
     17 C10         26.6670   -15.0470     5.4230 ca         1 835      -0.170000
     18 C7          26.2750   -14.8580     4.0870 ca         1 835       0.236400
     19 N3          25.9320   -13.5550     3.7310 nc         1 835      -0.630100
     20 C6          25.5540   -13.3950     2.4630 cd         1 835       0.515900
     21 C14         25.2300   -11.9520     2.1460 c3         1 835      -0.142400
     22 H1          23.0130   -15.9310    -2.0290 hn         1 835       0.332500
     23 H2          26.2950   -13.6160    -3.1010 hc         1 835       0.079700
     24 H3          24.9770   -12.7190    -2.3420 hc         1 835       0.079700
     25 H4          26.7260   -14.7530    -0.9000 hc         1 835       0.074200
     26 H5          26.6800   -13.0180    -0.6130 hc         1 835       0.074200
     27 H6          24.3700   -13.1440     0.1510 h1         1 835       0.076700
     28 H7          26.6530   -19.2500     3.3100 hn         1 835       0.497500
     29 H8          26.2800   -18.2190     1.9520 hn         1 835       0.497500
     30 H9          27.3240   -18.3790     5.3870 ha         1 835       0.115000
     31 H10         27.3400   -16.4380     6.9370 ha         1 835       0.113000
     32 H11         26.6810   -14.1990     6.1020 ha         1 835       0.134000
     33 H12         25.5190   -11.2740     2.9580 hc         1 835       0.065700
     34 H13         25.7600   -11.6130     1.2490 hc         1 835       0.065700
     35 H14         24.1540   -11.8200     1.9850 hc         1 835       0.065700
@<TRIPOS>BOND
     1     1     2 2   
     2     2     3 1   
     3     2     8 1   
     4     3     4 1   
     5     3    22 1   
     6     4     5 2   
     7     4     6 1   
     8     6     7 1   
     9     6    23 1   
    10     6    24 1   
    11     7     8 1   
    12     7    25 1   
    13     7    26 1   
    14     8     9 1   
    15     8    27 1   
    16     9    10 1   
    17     9    20 1   
    18    10    11 2   
    19    10    12 1   
    20    12    13 ar  
    21    12    18 ar  
    22    13    14 1   
    23    13    15 ar  
    24    14    28 1   
    25    14    29 1   
    26    15    16 ar  
    27    15    30 1   
    28    16    17 ar  
    29    16    31 1   
    30    17    18 ar  
    31    17    32 1   
    32    18    19 1   
    33    19    20 2   
    34    20    21 1   
    35    21    33 1   
    36    21    34 1   
    37    21    35 1   
@<TRIPOS>SUBSTRUCTURE
     1 835         1 TEMP              0 ****  ****    0 ROOT
