@<TRIPOS>MOLECULE
835
   35    37     1     0     0
SMALL
bcc


@<TRIPOS>ATOM
      1 O2          23.0540   -15.3530     0.6030 o          1 835      -0.578500
      2 C3          23.8630   -14.9660    -0.2040 c          1 835       0.728500
      3 N1          23.7420   -15.2730    -1.5380 ns         1 835      -0.610500
      4 C4          24.4850   -14.7900    -2.5990 c          1 835       0.724500
      5 O1          24.2360   -15.1470    -3.7260 o          1 835      -0.586500
      6 C5          25.5470   -13.7880    -2.2460 c6         1 835      -0.163400
      7 C1          26.1370   -14.0240    -0.8660 c6         1 835      -0.083400
      8 C2          25.0140   -14.0400     0.1610 c6         1 835       0.027700
      9 N2          25.4560   -14.3180     1.5180 n          1 835      -0.393300
     10 C9          25.8280   -15.6320     1.7900 c          1 835       0.739100
     11 O3          25.7730   -16.4590     0.8870 o          1 835      -0.657500
     12 C8          26.2440   -15.9010     3.1440 ca         1 835      -0.284600
     13 C13         26.6400   -17.2030     3.5620 ca         1 835       0.274600
     14 N4          26.7170   -18.2500     2.7120 nv         1 835      -0.855200
     15 C12         26.9880   -17.3760     4.9100 ca         1 835      -0.256000
     16 C11         26.9580   -16.3160     5.7970 ca         1 835      -0.034000
     17 C10         26.5890   -15.0420     5.3970 ca         1 835      -0.188000
     18 C7          26.2310   -14.8350     4.0680 ca         1 835       0.236400
     19 N3          25.8700   -13.5650     3.6890 nc         1 835      -0.630100
     20 C6          25.5080   -13.3350     2.4800 cd         1 835       0.515900
     21 C14         25.1370   -11.9360     2.1060 c3         1 835      -0.142400
     22 H1          22.9690   -15.8850    -1.7780 hn         1 835       0.332500
     23 H2          26.3170   -13.8150    -3.0150 hc         1 835       0.079700
     24 H3          25.0830   -12.7960    -2.2940 hc         1 835       0.079700
     25 H4          26.6970   -14.9580    -0.8510 hc         1 835       0.074200
     26 H5          26.8310   -13.2200    -0.6220 hc         1 835       0.074200
     27 H6          24.5590   -13.0480     0.1560 h1         1 835       0.076700
     28 H7          26.8300   -19.1740     3.0930 hn         1 835       0.442300
     29 H8          26.3170   -18.1730     1.7930 hn         1 835       0.442300
     30 H9          27.2860   -18.3600     5.2520 ha         1 835       0.133000
     31 H10         27.2330   -16.4910     6.8300 ha         1 835       0.131000
     32 H11         26.5710   -14.2110     6.0880 ha         1 835       0.152000
     33 H12         25.3060   -11.2960     2.9660 hc         1 835       0.065700
     34 H13         25.7360   -11.5630     1.2740 hc         1 835       0.065700
     35 H14         24.0860   -11.8560     1.8240 hc         1 835       0.065700
@<TRIPOS>BOND
     1     1     2 2   
     2     2     3 1   
     3     2     8 1   
     4     3     4 1   
     5     3    22 1   
     6     4     5 2   
     7     4     6 1   
     8     6     7 1   
     9     6    23 1   
    10     6    24 1   
    11     7     8 1   
    12     7    25 1   
    13     7    26 1   
    14     8     9 1   
    15     8    27 1   
    16     9    10 1   
    17     9    20 1   
    18    10    11 2   
    19    10    12 1   
    20    12    13 ar  
    21    12    18 ar  
    22    13    14 1   
    23    13    15 ar  
    24    14    28 1   
    25    14    29 1   
    26    15    16 ar  
    27    15    30 1   
    28    16    17 ar  
    29    16    31 1   
    30    17    18 ar  
    31    17    32 1   
    32    18    19 1   
    33    19    20 2   
    34    20    21 1   
    35    21    33 1   
    36    21    34 1   
    37    21    35 1   
@<TRIPOS>SUBSTRUCTURE
     1 835         1 TEMP              0 ****  ****    0 ROOT
