@<TRIPOS>MOLECULE
836
   63    67     1     0     0
SMALL
abcg2


@<TRIPOS>ATOM
      1 N1         -35.0880    10.0130    27.5990 no         1 836       0.675200
      2 N3         -42.1170     0.1800    26.6390 nb         1 836      -0.298000
      3 C4         -38.0980     7.9510    24.2640 c3         1 836       0.349300
      4 C5         -38.7600     8.1120    26.7090 ca         1 836      -0.043600
      5 C6         -38.4690     8.5090    28.0130 ca         1 836      -0.104000
      6 C7         -37.2710     9.1330    28.3190 ca         1 836      -0.021000
      7 C8         -40.1220     7.5060    26.4610 c          1 836       0.597700
      8 C10        -41.5480     5.5690    26.2040 c6         1 836       0.105700
      9 C13        -42.8940     3.8310    25.0290 c6         1 836       0.207800
     10 C15        -43.3450     2.1500    26.7530 ca         1 836       0.558900
     11 C17        -43.8920     0.3150    28.2530 ca         1 836      -0.037000
     12 C20        -46.2160     1.6010    29.1220 ca         1 836      -0.103000
     13 C21        -45.4400     2.1910    28.1520 ca         1 836      -0.082000
     14 C22        -42.7800    -0.3510    27.6390 ca         1 836       0.356500
     15 C24        -43.0720    -2.8730    28.1930 cc         1 836      -0.213000
     16 N01        -40.2240     6.1670    26.4440 n          1 836      -0.393800
     17 C1         -36.3670     9.3630    27.2940 ca         1 836      -0.169200
     18 O1         -41.0700     8.2810    26.3190 o          1 836      -0.577100
     19 C11        -42.2200     5.1440    27.5100 c6         1 836      -0.120900
     20 C12        -43.6050     4.5510    27.2400 c6         1 836       0.207800
     21 C14        -41.4880     4.4010    25.2230 c6         1 836      -0.120900
     22 C16        -44.2380     1.5850    27.7350 ca         1 836      -0.077000
     23 C18        -44.6770    -0.2500    29.2790 ca         1 836      -0.088000
     24 C19        -45.8130     0.3910    29.7140 ca         1 836      -0.092000
     25 O2         -34.3160    10.2290    26.6750 o          1 836      -0.384500
     26 C2         -36.6300     8.9970    25.9840 ca         1 836      -0.008000
     27 F2         -38.0670     6.6050    24.1180 f          1 836      -0.102333
     28 N2         -43.5360     3.4330    26.2850 nh         1 836      -0.768300
     29 C23        -42.3520    -1.6950    28.0520 cd         1 836      -0.200500
     30 C25        -42.1210    -3.8380    28.5520 cc         1 836       0.238900
     31 O3         -34.8580    10.3080    28.7630 o          1 836      -0.384500
     32 C3         -37.8310     8.3680    25.6910 ca         1 836      -0.175300
     33 F3         -37.1890     8.4530    23.4090 f          1 836      -0.102333
     34 F4         -39.3100     8.3560    23.8320 f          1 836      -0.102333
     35 N4         -42.3640     1.4390    26.2240 nb         1 836      -0.412000
     36 N5         -40.9020    -3.3050    28.6400 nd         1 836      -0.516800
     37 N6         -41.0560    -2.0030    28.3340 na         1 836       0.142800
     38 C9         -39.1120     5.2700    26.7470 c3         1 836       0.087300
     39 H1         -39.1900     8.3230    28.7970 ha         1 836       0.143000
     40 H2         -37.0420     9.4360    29.3300 ha         1 836       0.161000
     41 H3         -42.1500     6.3610    25.7600 h1         1 836       0.086700
     42 H4         -43.5350     4.5980    24.5840 h1         1 836       0.065200
     43 H5         -42.8710     2.9750    24.3610 h1         1 836       0.065200
     44 H6         -47.1410     2.0690    29.4320 ha         1 836       0.122000
     45 H7         -45.7650     3.1120    27.6920 ha         1 836       0.129000
     46 H9         -39.1580    -1.5570    29.0050 h1         1 836       0.060033
     47 H10        -39.4820    -1.0310    27.3350 h1         1 836       0.060033
     48 H11        -40.1870    -0.1400    28.6960 h1         1 836       0.060033
     49 H12        -41.6090     4.3970    28.0250 hc         1 836       0.061450
     50 H13        -42.3230     6.0050    28.1740 hc         1 836       0.061450
     51 H14        -44.2620     5.3140    26.8160 h1         1 836       0.065200
     52 H15        -44.0420     4.2180    28.1750 h1         1 836       0.065200
     53 H16        -40.8390     3.6120    25.6020 hc         1 836       0.061450
     54 H17        -41.0920     4.7370    24.2630 hc         1 836       0.061450
     55 H18        -44.3860    -1.1940    29.7150 ha         1 836       0.136000
     56 H19        -46.4160    -0.0510    30.4960 ha         1 836       0.122000
     57 H20        -35.9040     9.2000    25.2130 ha         1 836       0.173000
     58 H21        -42.2670    -4.8880    28.7510 h4         1 836       0.039100
     59 H22        -38.2770     5.8270    27.1570 h1         1 836       0.049033
     60 H23        -39.4290     4.5380    27.4890 h1         1 836       0.049033
     61 H24        -38.7780     4.7440    25.8530 h1         1 836       0.049033
     62 H8         -44.1290    -3.0070    28.0380 ha         1 836       0.145000
     63 C26        -39.8990    -1.1250    28.3370 c3         1 836       0.076900
@<TRIPOS>BOND
     1     1    17 1   
     2     1    25 1   
     3     1    31 1   
     4     2    14 ar  
     5     2    35 ar  
     6     3    27 1   
     7     3    32 1   
     8     3    33 1   
     9     3    34 1   
    10     4     5 ar  
    11     4     7 1   
    12     4    32 ar  
    13     5     6 ar  
    14     5    39 1   
    15     6    17 ar  
    16     6    40 1   
    17     7    16 1   
    18     7    18 2   
    19     8    16 1   
    20     8    19 1   
    21     8    21 1   
    22     8    41 1   
    23     9    21 1   
    24     9    28 1   
    25     9    42 1   
    26     9    43 1   
    27    10    22 ar  
    28    10    28 1   
    29    10    35 ar  
    30    11    14 ar  
    31    11    22 ar  
    32    11    23 ar  
    33    12    13 ar  
    34    12    24 ar  
    35    12    44 1   
    36    13    22 ar  
    37    13    45 1   
    38    14    29 1   
    39    15    29 2   
    40    15    30 1   
    41    15    62 1   
    42    16    38 1   
    43    17    26 ar  
    44    19    20 1   
    45    19    49 1   
    46    19    50 1   
    47    20    28 1   
    48    20    51 1   
    49    20    52 1   
    50    21    53 1   
    51    21    54 1   
    52    23    24 ar  
    53    23    55 1   
    54    24    56 1   
    55    26    32 ar  
    56    26    57 1   
    57    29    37 1   
    58    30    36 2   
    59    30    58 1   
    60    36    37 1   
    61    37    63 1   
    62    38    59 1   
    63    38    60 1   
    64    38    61 1   
    65    46    63 1   
    66    47    63 1   
    67    48    63 1   
@<TRIPOS>SUBSTRUCTURE
     1 836         1 TEMP              0 ****  ****    0 ROOT
