@<TRIPOS>MOLECULE
836
   63    67     1     0     0
SMALL
No Charge or Current Charge


@<TRIPOS>ATOM
      1 N1         -34.8840    10.5110    26.9240 no         1 836       0.675200
      2 N3         -41.8400     0.1430    27.2910 nb         1 836      -0.298000
      3 C4         -38.3570     7.9930    24.2290 c3         1 836       0.349300
      4 C5         -38.7280     8.5120    26.7610 ca         1 836      -0.043600
      5 C6         -38.2950     9.1520    27.9390 ca         1 836      -0.104000
      6 C7         -37.0550     9.8020    27.9980 ca         1 836      -0.021000
      7 C8         -40.0610     7.7970    26.8150 c          1 836       0.597700
      8 C10        -41.3760     5.6800    26.4270 c6         1 836       0.105700
      9 C13        -42.6370     3.7790    25.2870 c6         1 836       0.207800
     10 C15        -43.1810     2.0600    27.0620 ca         1 836       0.558900
     11 C17        -44.0860     0.0870    28.1710 ca         1 836      -0.037000
     12 C20        -46.5550     1.4140    28.5780 ca         1 836      -0.103000
     13 C21        -45.5150     2.0640    27.8960 ca         1 836      -0.082000
     14 C22        -42.8270    -0.5390    27.9270 ca         1 836       0.356500
     15 C24        -43.3750    -3.0490    28.1280 cc         1 836      -0.213000
     16 N01        -40.0810     6.3950    26.6050 n          1 836      -0.393800
     17 C1         -36.2170     9.8290    26.8640 ca         1 836      -0.169200
     18 O1         -41.0970     8.4310    26.9830 o          1 836      -0.577100
     19 C11        -41.9600     5.2010    27.7800 c6         1 836      -0.120900
     20 C12        -43.3280     4.5130    27.5790 c6         1 836       0.207800
     21 C14        -41.2640     4.4670    25.4680 c6         1 836      -0.120900
     22 C16        -44.2700     1.4200    27.7100 ca         1 836      -0.077000
     23 C18        -45.1330    -0.5340    28.8930 ca         1 836      -0.088000
     24 C19        -46.3580     0.1240    29.0890 ca         1 836      -0.092000
     25 O2         -34.1810    10.5140    25.9050 o          1 836      -0.384500
     26 C2         -36.6560     9.2150    25.6690 ca         1 836      -0.008000
     27 F2         -37.9600     6.7120    24.0760 f          1 836      -0.102333
     28 N2         -43.2220     3.3970    26.6020 nh         1 836      -0.768300
     29 C23        -42.5320    -1.9730    28.1920 cd         1 836      -0.200500
     30 C25        -42.6090    -4.1950    28.3600 cc         1 836       0.238900
     31 O3         -34.5440    11.0400    27.9910 o          1 836      -0.384500
     32 C3         -37.9140     8.5700    25.5910 ca         1 836      -0.175300
     33 F3         -37.8300     8.6830    23.1910 f          1 836      -0.102333
     34 F4         -39.6950     8.0210    24.0430 f          1 836      -0.102333
     35 N4         -42.0080     1.4120    26.8730 nb         1 836      -0.412000
     36 N5         -41.3340    -3.9440    28.5550 nd         1 836      -0.516800
     37 N6         -41.2710    -2.5600    28.4310 na         1 836       0.142800
     38 C9         -38.8640     5.5860    26.8890 c3         1 836       0.087300
     39 H1         -38.9240     9.1280    28.8280 ha         1 836       0.143000
     40 H2         -36.7510    10.2740    28.9310 ha         1 836       0.161000
     41 H3         -42.0970     6.3790    25.9770 h1         1 836       0.086700
     42 H4         -43.3210     4.4630    24.7620 h1         1 836       0.065200
     43 H5         -42.5230     2.8980    24.6380 h1         1 836       0.065200
     44 H6         -47.5080     1.9180    28.7230 ha         1 836       0.122000
     45 H7         -45.6860     3.0670    27.5140 ha         1 836       0.129000
     46 H9         -39.2600    -2.5420    29.0900 h1         1 836       0.060033
     47 H10        -39.5930    -1.5580    27.6350 h1         1 836       0.060033
     48 H11        -40.1230    -0.9870    29.2480 h1         1 836       0.060033
     49 H12        -41.2720     4.4990    28.2690 hc         1 836       0.061450
     50 H13        -42.0770     6.0530    28.4620 hc         1 836       0.061450
     51 H14        -44.0640     5.2510    27.2260 h1         1 836       0.065200
     52 H15        -43.6900     4.1470    28.5520 h1         1 836       0.065200
     53 H16        -40.5480     3.7300    25.8520 hc         1 836       0.061450
     54 H17        -40.8860     4.7960    24.4910 hc         1 836       0.061450
     55 H18        -45.0060    -1.5130    29.3420 ha         1 836       0.136000
     56 H19        -47.1560    -0.3670    29.6420 ha         1 836       0.122000
     57 H20        -36.0170     9.2460    24.7870 ha         1 836       0.173000
     58 H21        -42.9510    -5.2220    28.3750 h4         1 836       0.039100
     59 H22        -38.0810     6.1830    27.3710 h1         1 836       0.049033
     60 H23        -39.1130     4.7570    27.5630 h1         1 836       0.049033
     61 H24        -38.4690     5.1650    25.9570 h1         1 836       0.049033
     62 H8         -44.4340    -3.0620    27.8910 ha         1 836       0.145000
     63 C26        -39.9820    -1.8690    28.6120 c3         1 836       0.076900
@<TRIPOS>BOND
     1     1    17 1   
     2     1    25 1   
     3     1    31 1   
     4     2    14 ar  
     5     2    35 ar  
     6     3    27 1   
     7     3    32 1   
     8     3    33 1   
     9     3    34 1   
    10     4     5 ar  
    11     4     7 1   
    12     4    32 ar  
    13     5     6 ar  
    14     5    39 1   
    15     6    17 ar  
    16     6    40 1   
    17     7    16 1   
    18     7    18 2   
    19     8    16 1   
    20     8    19 1   
    21     8    21 1   
    22     8    41 1   
    23     9    21 1   
    24     9    28 1   
    25     9    42 1   
    26     9    43 1   
    27    10    22 ar  
    28    10    28 1   
    29    10    35 ar  
    30    11    14 ar  
    31    11    22 ar  
    32    11    23 ar  
    33    12    13 ar  
    34    12    24 ar  
    35    12    44 1   
    36    13    22 ar  
    37    13    45 1   
    38    14    29 1   
    39    15    29 2   
    40    15    30 1   
    41    15    62 1   
    42    16    38 1   
    43    17    26 ar  
    44    19    20 1   
    45    19    49 1   
    46    19    50 1   
    47    20    28 1   
    48    20    51 1   
    49    20    52 1   
    50    21    53 1   
    51    21    54 1   
    52    23    24 ar  
    53    23    55 1   
    54    24    56 1   
    55    26    32 ar  
    56    26    57 1   
    57    29    37 1   
    58    30    36 2   
    59    30    58 1   
    60    36    37 1   
    61    37    63 1   
    62    38    59 1   
    63    38    60 1   
    64    38    61 1   
    65    46    63 1   
    66    47    63 1   
    67    48    63 1   
@<TRIPOS>SUBSTRUCTURE
     1 836         1 TEMP              0 ****  ****    0 ROOT
