@<TRIPOS>MOLECULE
837
   46    49     1     0     0
SMALL
abcg2


@<TRIPOS>ATOM
      1 C10         -1.2060    -0.1400     0.9880 ca         1 837      -0.115500
      2 C13          0.4160    -3.2750    -0.0530 cc         1 837      -0.229000
      3 C15          2.5840    -2.1440    -0.1440 cc         1 837      -0.373600
      4 C20          3.9530    -1.6720    -0.2120 c          1 837       0.642900
      5 C24          3.9810     4.0380    -0.6220 c6         1 837       0.142100
      6 C26          1.7300     4.0510    -0.1300 c6         1 837       0.142100
      7 C01         -7.9970    -0.0060    -1.0640 c3         1 837      -0.098100
      8 C02         -7.0850     0.8170    -0.1880 c3         1 837       0.169600
      9 C04         -4.8150     0.7640     0.4840 c          1 837       0.609700
     10 O05         -4.9650     1.7420     1.1790 o          1 837      -0.495000
     11 C06         -3.5220     0.0480     0.3430 ca         1 837      -0.140600
     12 C07         -3.3610    -1.0450    -0.5070 ca         1 837      -0.056500
     13 C08         -2.1320    -1.6710    -0.6130 ca         1 837      -0.115500
     14 C09         -1.0380    -1.2300     0.1320 ca         1 837       0.022000
     15 C11         -2.4320     0.4930     1.0880 ca         1 837      -0.056500
     16 C12          0.2530    -1.9180     0.0230 cd         1 837      -0.071000
     17 S14          2.0490    -3.7710    -0.1790 ss         1 837       0.351000
     18 C16          1.5290    -1.2890    -0.0350 cd         1 837       0.137100
     19 O17          1.6870     0.0440    -0.0210 os         1 837      -0.213200
     20 C18          2.9250     0.5640    -0.0850 cc         1 837       0.387100
     21 C19          4.0370    -0.2400    -0.1510 cd         1 837      -0.491200
     22 N22          2.9060     1.9110    -0.0950 nh         1 837      -0.664400
     23 C23          4.1680     2.6360    -0.0730 c6         1 837       0.177800
     24 O25          2.9500     4.7310     0.0370 os         1 837      -0.437000
     25 C27          1.7760     2.6560     0.4610 c6         1 837       0.177800
     26 H1          -0.3860     0.2080     1.6020 ha         1 837       0.121500
     27 H2          -0.3650    -4.0190    -0.0190 h4         1 837       0.158000
     28 H3           4.9050     4.6000    -0.4830 h1         1 837       0.059700
     29 H4           3.7790     3.9820    -1.7010 h1         1 837       0.059700
     30 H5           0.9540     4.6250     0.3780 h1         1 837       0.059700
     31 H6           1.4650     3.9890    -1.1940 h1         1 837       0.059700
     32 H7          -8.9930     0.4380    -1.0570 hc         1 837       0.047367
     33 H8          -7.6500    -0.0280    -2.0970 hc         1 837       0.047367
     34 H9          -8.0860    -1.0300    -0.7030 hc         1 837       0.047367
     35 H10         -7.0220     1.8460    -0.5450 h1         1 837       0.050200
     36 H11         -7.4450     0.8380     0.8420 h1         1 837       0.050200
     37 H12         -4.1860    -1.4100    -1.1030 ha         1 837       0.133500
     38 H13         -2.0180    -2.5030    -1.2960 ha         1 837       0.121500
     39 H14         -2.5400     1.3340     1.7590 ha         1 837       0.133500
     40 H15          5.0220     0.2030    -0.1550 ha         1 837       0.210000
     41 H16          4.8970     2.1320    -0.7060 h1         1 837       0.063450
     42 H17          4.5700     2.6700     0.9460 h1         1 837       0.063450
     43 H18          1.8680     2.7090     1.5520 h1         1 837       0.063450
     44 H19          0.8360     2.1630     0.2260 h1         1 837       0.063450
     45 O21          4.9140    -2.4350    -0.2920 o          1 837      -0.568100
     46 O03         -5.7800     0.2150    -0.2300 os         1 837      -0.447100
@<TRIPOS>BOND
     1     1    14 ar  
     2     1    15 ar  
     3     1    26 1   
     4     2    16 2   
     5     2    17 1   
     6     2    27 1   
     7     3     4 1   
     8     3    17 1   
     9     3    18 2   
    10     4    21 1   
    11     4    45 2   
    12     5    23 1   
    13     5    24 1   
    14     5    28 1   
    15     5    29 1   
    16     6    24 1   
    17     6    25 1   
    18     6    30 1   
    19     6    31 1   
    20     7     8 1   
    21     7    32 1   
    22     7    33 1   
    23     7    34 1   
    24     8    35 1   
    25     8    36 1   
    26     8    46 1   
    27     9    10 2   
    28     9    11 1   
    29     9    46 1   
    30    11    12 ar  
    31    11    15 ar  
    32    12    13 ar  
    33    12    37 1   
    34    13    14 ar  
    35    13    38 1   
    36    14    16 1   
    37    15    39 1   
    38    16    18 1   
    39    18    19 1   
    40    19    20 1   
    41    20    21 2   
    42    20    22 1   
    43    21    40 1   
    44    22    23 1   
    45    22    25 1   
    46    23    41 1   
    47    23    42 1   
    48    25    43 1   
    49    25    44 1   
@<TRIPOS>SUBSTRUCTURE
     1 837         1 TEMP              0 ****  ****    0 ROOT
