@<TRIPOS>MOLECULE
837
   46    49     1     0     0
SMALL
No Charge or Current Charge


@<TRIPOS>ATOM
      1 C10         -1.2170     0.1120     0.5140 ca         1 837      -0.115500
      2 C13          0.3090    -3.2690    -0.3050 cc         1 837      -0.229000
      3 C15          2.5350    -2.1720    -0.2630 cc         1 837      -0.373600
      4 C20          3.9050    -1.7240    -0.3370 c          1 837       0.642900
      5 C24          4.4440     4.1240    -0.1440 c6         1 837       0.142100
      6 C26          2.0510     4.2630    -0.2650 c6         1 837       0.142100
      7 C01         -8.3330    -0.3690    -0.6740 c3         1 837      -0.098100
      8 C02         -7.3430     0.6700    -0.1240 c3         1 837       0.169600
      9 C04         -4.9700     0.8290     0.2710 c          1 837       0.609700
     10 O05         -5.0830     1.9680     0.7080 o          1 837      -0.495000
     11 C06         -3.6400     0.1150     0.1740 ca         1 837      -0.140600
     12 C07         -3.5420    -1.1990    -0.3310 ca         1 837      -0.056500
     13 C08         -2.2950    -1.8430    -0.4110 ca         1 837      -0.115500
     14 C09         -1.1070    -1.1980    -0.0020 ca         1 837       0.022000
     15 C11         -2.4610     0.7600     0.5990 ca         1 837      -0.056500
     16 C12          0.1990    -1.9040    -0.0980 cd         1 837      -0.071000
     17 S14          1.9860    -3.8190    -0.4000 ss         1 837       0.351000
     18 C16          1.5040    -1.3090    -0.1120 cd         1 837       0.137100
     19 O17          1.7470     0.0330    -0.0470 os         1 837      -0.213200
     20 C18          3.0100     0.5850    -0.0820 cc         1 837       0.387100
     21 C19          4.0700    -0.2820    -0.2280 cd         1 837      -0.491200
     22 N22          3.1060     1.9620     0.0180 nh         1 837      -0.664400
     23 C23          4.3960     2.6540     0.3630 c6         1 837       0.177800
     24 O25          3.2620     4.8490     0.2610 os         1 837      -0.437000
     25 C27          1.8800     2.8030     0.2400 c6         1 837       0.177800
     26 H1          -0.3490     0.6390     0.8920 ha         1 837       0.121500
     27 H2          -0.4670    -4.0180    -0.3750 h4         1 837       0.158000
     28 H3           5.3330     4.6280     0.2600 h1         1 837       0.059700
     29 H4           4.5170     4.1370    -1.2420 h1         1 837       0.059700
     30 H5           1.1900     4.8690     0.0500 h1         1 837       0.059700
     31 H6           2.0910     4.2750    -1.3640 h1         1 837       0.059700
     32 H7          -9.3530     0.0340    -0.6570 hc         1 837       0.047367
     33 H8          -8.0840    -0.6300    -1.7090 hc         1 837       0.047367
     34 H9          -8.3130    -1.2810    -0.0670 hc         1 837       0.047367
     35 H10         -7.3890     1.5800    -0.7360 h1         1 837       0.050200
     36 H11         -7.6190     0.9280     0.9080 h1         1 837       0.050200
     37 H12         -4.4280    -1.7330    -0.6670 ha         1 837       0.133500
     38 H13         -2.2660    -2.8490    -0.8190 ha         1 837       0.121500
     39 H14         -2.5050     1.7680     1.0070 ha         1 837       0.133500
     40 H15          5.0950     0.0450    -0.2830 ha         1 837       0.210000
     41 H16          5.2590     2.1340    -0.0720 h1         1 837       0.063450
     42 H17          4.5360     2.6510     1.4530 h1         1 837       0.063450
     43 H18          1.6360     2.8250     1.3120 h1         1 837       0.063450
     44 H19          1.0120     2.3720    -0.2780 h1         1 837       0.063450
     45 O21          4.8540    -2.4780    -0.4810 o          1 837      -0.568100
     46 O03         -6.0320     0.0820    -0.1730 os         1 837      -0.447100
@<TRIPOS>BOND
     1     1    14 ar  
     2     1    15 ar  
     3     1    26 1   
     4     2    16 2   
     5     2    17 1   
     6     2    27 1   
     7     3     4 1   
     8     3    17 1   
     9     3    18 2   
    10     4    21 1   
    11     4    45 2   
    12     5    23 1   
    13     5    24 1   
    14     5    28 1   
    15     5    29 1   
    16     6    24 1   
    17     6    25 1   
    18     6    30 1   
    19     6    31 1   
    20     7     8 1   
    21     7    32 1   
    22     7    33 1   
    23     7    34 1   
    24     8    35 1   
    25     8    36 1   
    26     8    46 1   
    27     9    10 2   
    28     9    11 1   
    29     9    46 1   
    30    11    12 ar  
    31    11    15 ar  
    32    12    13 ar  
    33    12    37 1   
    34    13    14 ar  
    35    13    38 1   
    36    14    16 1   
    37    15    39 1   
    38    16    18 1   
    39    18    19 1   
    40    19    20 1   
    41    20    21 2   
    42    20    22 1   
    43    21    40 1   
    44    22    23 1   
    45    22    25 1   
    46    23    41 1   
    47    23    42 1   
    48    25    43 1   
    49    25    44 1   
@<TRIPOS>SUBSTRUCTURE
     1 837         1 TEMP              0 ****  ****    0 ROOT
