@<TRIPOS>MOLECULE
838
   84    86     1     0     0
SMALL
abcg2


@<TRIPOS>ATOM
      1 N1           3.7590    17.0170     1.7280 n          1 838      -0.306200
      2 N2           4.1510    15.6970     1.4530 n7         1 838      -0.587400
      3 C5           2.1550    14.8790     2.7180 c6         1 838      -0.099400
      4 C6           1.7740    16.3340     2.9930 c6         1 838      -0.098400
      5 C7           2.3270    17.2560     1.9090 c6         1 838       0.077000
      6 C8           3.6690    14.7800     2.5050 c6         1 838       0.077500
      7 C23         10.4120    19.1090     0.1420 c          1 838       0.601100
      8 C24         11.5580    18.4120    -0.5920 c3         1 838      -0.137700
      9 C25         12.3880    19.4670    -1.3390 c3         1 838      -0.083100
     10 C26         11.1780    17.2460    -1.5210 c3         1 838       0.175300
     11 C27         10.6090    16.0070    -0.8190 c3         1 838      -0.100400
     12 C28          9.2370    16.1880    -0.1800 c3         1 838      -0.052200
     13 C29          4.0880    13.3850     2.0940 c          1 838       0.597100
     14 C30          5.2930    11.4390     2.8040 c3         1 838       0.226600
     15 C31          6.4460    11.4100     1.8250 ca         1 838      -0.106300
     16 C32          7.1720    12.5460     1.4980 ca         1 838      -0.084000
     17 C33          8.2550    12.4880     0.6080 ca         1 838      -0.040800
     18 C34          8.6200    11.2420     0.0900 ca         1 838      -0.100000
     19 C35          7.8990    10.0980     0.4160 ca         1 838      -0.107000
     20 C36          6.8100    10.1790     1.2720 ca         1 838      -0.101000
     21 C37          8.9930    13.6850     0.1830 ce         1 838      -0.183200
     22 C38          8.5520    14.9410     0.2830 c2         1 838      -0.188200
     23 C40          5.6770    10.9010     4.1730 c3         1 838      -0.089100
     24 O44         10.4800    19.3340     1.3540 o          1 838      -0.631100
     25 O45          3.7880    12.8800     1.0360 o          1 838      -0.473000
     26 O46         10.3080    17.7500    -2.5390 os         1 838      -0.488000
     27 O47          4.8200    12.7940     3.0390 os         1 838      -0.448100
     28 N4           9.3830    19.5200    -0.6250 ns         1 838      -0.489900
     29 C19          8.1950    20.1650    -0.0910 c3         1 838       0.041700
     30 C18          7.1480    19.0650     0.1240 c          1 838       0.577100
     31 O43          6.5570    18.5420    -0.8210 o          1 838      -0.614100
     32 C20          7.6770    21.2730    -1.0150 c3         1 838      -0.062700
     33 C21          6.4230    21.9120    -0.4130 c3         1 838      -0.089100
     34 C22          8.7570    22.3230    -1.2660 c3         1 838      -0.089100
     35 N3           6.9940    18.6650     1.3960 ns         1 838      -0.485900
     36 C10          6.1640    17.5390     1.7690 c3         1 838       0.054700
     37 C9           4.6970    17.9760     1.9140 c          1 838       0.616100
     38 O41          4.4010    19.1340     2.1970 o          1 838      -0.600100
     39 C11          6.6880    16.9340     3.0700 c3         1 838      -0.100100
     40 H1           3.7490    15.4250     0.5580 hn         1 838       0.439000
     41 H4           1.6480    14.5180     1.8190 hc         1 838       0.060700
     42 H5           1.8550    14.2380     3.5500 hc         1 838       0.060700
     43 H6           2.1690    16.6440     3.9640 hc         1 838       0.057200
     44 H7           0.6880    16.4390     3.0300 hc         1 838       0.057200
     45 H8           2.1940    18.3030     2.1660 h1         1 838       0.069700
     46 H9           1.8280    17.0640     0.9540 h1         1 838       0.069700
     47 H10          4.1850    15.0460     3.4260 h1         1 838       0.094700
     48 H23         12.1750    17.9830     0.1990 hc         1 838       0.082700
     49 H24         12.6860    20.2720    -0.6660 hc         1 838       0.045367
     50 H25         13.2910    19.0100    -1.7460 hc         1 838       0.045367
     51 H26         11.8190    19.9000    -2.1620 hc         1 838       0.045367
     52 H27         12.1140    16.9340    -2.0040 h1         1 838       0.037700
     53 H28         10.5620    15.2020    -1.5550 hc         1 838       0.048200
     54 H29         11.3380    15.6860    -0.0700 hc         1 838       0.048200
     55 H30          9.3010    16.8660     0.6760 hc         1 838       0.066700
     56 H31          8.5690    16.6910    -0.8870 hc         1 838       0.066700
     57 H32          4.4610    10.8670     2.3940 h1         1 838       0.067700
     58 H33          6.8970    13.4950     1.9380 ha         1 838       0.119000
     59 H34          9.4610    11.1770    -0.5900 ha         1 838       0.112000
     60 H35          8.1840     9.1420    -0.0050 ha         1 838       0.114000
     61 H36          6.2440     9.2880     1.5180 ha         1 838       0.111000
     62 H37          9.9510    13.4880    -0.2880 ha         1 838       0.169000
     63 H38          7.5750    15.1100     0.7250 ha         1 838       0.174000
     64 H39          9.5760    17.4710    -4.4050 h1         1 838       0.035367
     65 H40         11.1320    16.6590    -4.1010 h1         1 838       0.035367
     66 H41          9.6240    15.9880    -3.4290 h1         1 838       0.035367
     67 H42          4.8180    10.9240     4.8450 hc         1 838       0.051367
     68 H43          6.0190     9.8710     4.0790 hc         1 838       0.051367
     69 H44          6.4850    11.4980     4.6010 hc         1 838       0.051367
     70 H3           9.3580    19.1720    -1.5760 hn         1 838       0.349500
     71 H15          8.4730    20.5980     0.8690 h1         1 838       0.083700
     72 H16          7.4070    20.8060    -1.9670 hc         1 838       0.066700
     73 H17          5.6240    21.1830    -0.2670 hc         1 838       0.039367
     74 H18          6.6510    22.3640     0.5560 hc         1 838       0.039367
     75 H19          6.0450    22.6970    -1.0700 hc         1 838       0.039367
     76 H20          9.6480    21.8860    -1.7190 hc         1 838       0.039367
     77 H21          8.3810    23.0990    -1.9350 hc         1 838       0.039367
     78 H22          9.0530    22.8030    -0.3290 hc         1 838       0.039367
     79 H2           7.4740    19.1690     2.1240 hn         1 838       0.332500
     80 H11          6.2210    16.8050     0.9720 h1         1 838       0.099700
     81 H12          6.1260    16.0430     3.3380 hc         1 838       0.050700
     82 H13          7.7350    16.6570     2.9470 hc         1 838       0.050700
     83 H14          6.6100    17.6540     3.8870 hc         1 838       0.050700
     84 C39         10.1560    16.9110    -3.6740 c3         1 838       0.151900
@<TRIPOS>BOND
     1     1     2 1   
     2     1     5 1   
     3     1    37 1   
     4     2     6 1   
     5     2    40 1   
     6     3     4 1   
     7     3     6 1   
     8     3    41 1   
     9     3    42 1   
    10     4     5 1   
    11     4    43 1   
    12     4    44 1   
    13     5    45 1   
    14     5    46 1   
    15     6    13 1   
    16     6    47 1   
    17     7     8 1   
    18     7    24 2   
    19     7    28 1   
    20     8     9 1   
    21     8    10 1   
    22     8    48 1   
    23     9    49 1   
    24     9    50 1   
    25     9    51 1   
    26    10    11 1   
    27    10    26 1   
    28    10    52 1   
    29    11    12 1   
    30    11    53 1   
    31    11    54 1   
    32    12    22 1   
    33    12    55 1   
    34    12    56 1   
    35    13    25 2   
    36    13    27 1   
    37    14    15 1   
    38    14    23 1   
    39    14    27 1   
    40    14    57 1   
    41    15    16 ar  
    42    15    20 ar  
    43    16    17 ar  
    44    16    58 1   
    45    17    18 ar  
    46    17    21 1   
    47    18    19 ar  
    48    18    59 1   
    49    19    20 ar  
    50    19    60 1   
    51    20    61 1   
    52    21    22 2   
    53    21    62 1   
    54    22    63 1   
    55    23    67 1   
    56    23    68 1   
    57    23    69 1   
    58    26    84 1   
    59    28    29 1   
    60    28    70 1   
    61    29    30 1   
    62    29    32 1   
    63    29    71 1   
    64    30    31 2   
    65    30    35 1   
    66    32    33 1   
    67    32    34 1   
    68    32    72 1   
    69    33    73 1   
    70    33    74 1   
    71    33    75 1   
    72    34    76 1   
    73    34    77 1   
    74    34    78 1   
    75    35    36 1   
    76    35    79 1   
    77    36    37 1   
    78    36    39 1   
    79    36    80 1   
    80    37    38 2   
    81    39    81 1   
    82    39    82 1   
    83    39    83 1   
    84    64    84 1   
    85    65    84 1   
    86    66    84 1   
@<TRIPOS>SUBSTRUCTURE
     1 838         1 TEMP              0 ****  ****    0 ROOT
