@<TRIPOS>MOLECULE
838
   84    86     1     0     0
SMALL
No Charge or Current Charge


@<TRIPOS>ATOM
      1 N1           3.3000    17.0710     2.1590 n          1 838      -0.306200
      2 N2           3.3680    15.8380     1.3920 n7         1 838      -0.587400
      3 C5           2.3440    14.5340     3.2540 c6         1 838      -0.099400
      4 C6           2.2130    15.8630     4.0600 c6         1 838      -0.098400
      5 C7           2.1790    17.1150     3.1360 c6         1 838       0.077000
      6 C8           3.5200    14.6250     2.2450 c6         1 838       0.077500
      7 C23         10.7200    19.0520    -0.3090 c          1 838       0.601100
      8 C24         11.7200    18.3610    -1.2600 c3         1 838      -0.137700
      9 C25         12.4320    19.4350    -2.1220 c3         1 838      -0.083100
     10 C26         11.1560    17.2000    -2.1380 c3         1 838       0.175300
     11 C27         10.6560    15.9340    -1.3670 c3         1 838      -0.100400
     12 C28          9.3290    16.0820    -0.5910 c3         1 838      -0.052200
     13 C29          3.8350    13.3230     1.4450 c          1 838       0.597100
     14 C30          5.0390    11.2260     1.7320 c3         1 838       0.226600
     15 C31          6.5220    11.5310     2.0450 ca         1 838      -0.106300
     16 C32          7.1540    12.6260     1.4110 ca         1 838      -0.084000
     17 C33          8.4890    12.9780     1.7030 ca         1 838      -0.040800
     18 C34          9.2090    12.2100     2.6330 ca         1 838      -0.100000
     19 C35          8.6070    11.1060     3.2550 ca         1 838      -0.107000
     20 C36          7.2740    10.7690     2.9710 ca         1 838      -0.101000
     21 C37          9.1250    14.1910     1.1080 ce         1 838      -0.183200
     22 C38          8.7690    14.7780    -0.0570 c2         1 838      -0.188200
     23 C40          4.4780     9.9260     2.3460 c3         1 838      -0.089100
     24 O44         10.9780    19.2410     0.8720 o          1 838      -0.631100
     25 O45          4.0970    13.3520     0.2470 o          1 838      -0.473000
     26 O46         10.1100    17.7370    -2.9790 os         1 838      -0.488000
     27 O47          4.2360    12.2980     2.2700 os         1 838      -0.448100
     28 N4           9.5000    19.3950    -0.8450 ns         1 838      -0.489900
     29 C19          8.3850    20.0470    -0.1140 c3         1 838       0.041700
     30 C18          7.1310    19.1340    -0.2200 c          1 838       0.577100
     31 O43          6.8390    18.5280    -1.2440 o          1 838      -0.614100
     32 C20          8.1320    21.4900    -0.6470 c3         1 838      -0.062700
     33 C21          6.9580    22.1910     0.0800 c3         1 838      -0.089100
     34 C22          9.4060    22.3710    -0.5860 c3         1 838      -0.089100
     35 N3           6.3910    18.9870     0.9380 ns         1 838      -0.485900
     36 C10          5.5540    17.7950     1.2040 c3         1 838       0.054700
     37 C9           4.2930    18.0980     2.0780 c          1 838       0.616100
     38 O41          4.1700    19.1550     2.6910 o          1 838      -0.600100
     39 C11          6.4530    16.7100     1.8470 c3         1 838      -0.100100
     40 H1           2.5600    15.7580     0.7540 hn         1 838       0.439000
     41 H4           1.4080    14.3300     2.7150 hc         1 838       0.060700
     42 H5           2.4980    13.6930     3.9440 hc         1 838       0.060700
     43 H6           3.0660    15.9520     4.7470 hc         1 838       0.057200
     44 H7           1.3120    15.8370     4.6880 hc         1 838       0.057200
     45 H8           2.2250    18.0260     3.7490 h1         1 838       0.069700
     46 H9           1.2280    17.1390     2.5840 h1         1 838       0.069700
     47 H10          4.4230    14.7590     2.8570 h1         1 838       0.094700
     48 H23         12.4980    17.9300    -0.6190 hc         1 838       0.082700
     49 H24         12.9050    20.1910    -1.4830 hc         1 838       0.045367
     50 H25         13.2140    18.9810    -2.7430 hc         1 838       0.045367
     51 H26         11.7210    19.9460    -2.7830 hc         1 838       0.045367
     52 H27         11.9890    16.8640    -2.7720 h1         1 838       0.037700
     53 H28         10.5530    15.1090    -2.0810 hc         1 838       0.048200
     54 H29         11.4390    15.6170    -0.6670 hc         1 838       0.048200
     55 H30          9.4780    16.7750     0.2440 hc         1 838       0.066700
     56 H31          8.5800    16.5390    -1.2460 hc         1 838       0.066700
     57 H32          4.9240    11.1320     0.6430 h1         1 838       0.067700
     58 H33          6.5920    13.2300     0.7070 ha         1 838       0.119000
     59 H34         10.2360    12.4710     2.8790 ha         1 838       0.112000
     60 H35          9.1720    10.5160     3.9740 ha         1 838       0.114000
     61 H36          6.8380     9.9190     3.4880 ha         1 838       0.111000
     62 H37          9.9200    14.6310     1.7130 ha         1 838       0.169000
     63 H38          7.9820    14.3520    -0.6800 ha         1 838       0.174000
     64 H39          8.9540    17.4450    -4.6970 h1         1 838       0.035367
     65 H40         10.5220    16.6100    -4.7030 h1         1 838       0.035367
     66 H41          9.1780    15.9940    -3.7060 h1         1 838       0.035367
     67 H42          3.4410     9.7740     2.0240 hc         1 838       0.051367
     68 H43          5.0630     9.0600     2.0160 hc         1 838       0.051367
     69 H44          4.4920     9.9680     3.4410 hc         1 838       0.051367
     70 H3           9.3480    19.0880    -1.8040 hn         1 838       0.349500
     71 H15          8.6460    20.1110     0.9500 h1         1 838       0.083700
     72 H16          7.8500    21.4060    -1.7050 hc         1 838       0.066700
     73 H17          6.0160    21.6500    -0.0700 hc         1 838       0.039367
     74 H18          7.1510    22.2600     1.1580 hc         1 838       0.039367
     75 H19          6.8160    23.2080    -0.3060 hc         1 838       0.039367
     76 H20         10.2080    21.9560    -1.2080 hc         1 838       0.039367
     77 H21          9.1970    23.3830    -0.9530 hc         1 838       0.039367
     78 H22          9.7760    22.4500     0.4440 hc         1 838       0.039367
     79 H2           6.6500    19.5670     1.7280 hn         1 838       0.332500
     80 H11          5.1790    17.4110     0.2470 h1         1 838       0.099700
     81 H12          6.0450    15.7070     1.7010 hc         1 838       0.050700
     82 H13          7.4490    16.7180     1.3990 hc         1 838       0.050700
     83 H14          6.5720    16.8900     2.9220 hc         1 838       0.050700
     84 C39          9.6730    16.9020    -4.0710 c3         1 838       0.151900
@<TRIPOS>BOND
     1     1     2 1   
     2     1     5 1   
     3     1    37 1   
     4     2     6 1   
     5     2    40 1   
     6     3     4 1   
     7     3     6 1   
     8     3    41 1   
     9     3    42 1   
    10     4     5 1   
    11     4    43 1   
    12     4    44 1   
    13     5    45 1   
    14     5    46 1   
    15     6    13 1   
    16     6    47 1   
    17     7     8 1   
    18     7    24 2   
    19     7    28 1   
    20     8     9 1   
    21     8    10 1   
    22     8    48 1   
    23     9    49 1   
    24     9    50 1   
    25     9    51 1   
    26    10    11 1   
    27    10    26 1   
    28    10    52 1   
    29    11    12 1   
    30    11    53 1   
    31    11    54 1   
    32    12    22 1   
    33    12    55 1   
    34    12    56 1   
    35    13    25 2   
    36    13    27 1   
    37    14    15 1   
    38    14    23 1   
    39    14    27 1   
    40    14    57 1   
    41    15    16 ar  
    42    15    20 ar  
    43    16    17 ar  
    44    16    58 1   
    45    17    18 ar  
    46    17    21 1   
    47    18    19 ar  
    48    18    59 1   
    49    19    20 ar  
    50    19    60 1   
    51    20    61 1   
    52    21    22 2   
    53    21    62 1   
    54    22    63 1   
    55    23    67 1   
    56    23    68 1   
    57    23    69 1   
    58    26    84 1   
    59    28    29 1   
    60    28    70 1   
    61    29    30 1   
    62    29    32 1   
    63    29    71 1   
    64    30    31 2   
    65    30    35 1   
    66    32    33 1   
    67    32    34 1   
    68    32    72 1   
    69    33    73 1   
    70    33    74 1   
    71    33    75 1   
    72    34    76 1   
    73    34    77 1   
    74    34    78 1   
    75    35    36 1   
    76    35    79 1   
    77    36    37 1   
    78    36    39 1   
    79    36    80 1   
    80    37    38 2   
    81    39    81 1   
    82    39    82 1   
    83    39    83 1   
    84    64    84 1   
    85    65    84 1   
    86    66    84 1   
@<TRIPOS>SUBSTRUCTURE
     1 838         1 TEMP              0 ****  ****    0 ROOT
