@<TRIPOS>MOLECULE
839
   45    49     1     0     0
SMALL
No Charge or Current Charge


@<TRIPOS>ATOM
      1 O5           2.0340    -5.0710    -3.4090 o          1 839      -0.728000
      2 C23          1.7640    -5.8970    -2.5520 c          1 839       0.724000
      3 O4           1.6520    -7.0930    -2.7700 o          1 839      -0.728000
      4 C21          1.4700    -5.3940    -1.1380 c3         1 839      -0.239400
      5 C22         -0.0350    -5.0740    -1.0280 c3         1 839       0.084600
      6 N2          -0.4190    -4.5760     0.3050 na         1 839      -0.064600
      7 C14         -0.8540    -5.4110     1.3440 ca         1 839       0.025800
      8 C16         -0.4700    -3.2130     0.6330 ca         1 839      -0.024200
      9 C18         -0.1100    -2.0770    -0.1030 ca         1 839      -0.090000
     10 C20         -0.2780    -0.8220     0.5180 ca         1 839      -0.114000
     11 C19         -0.7870    -0.7340     1.8350 ca         1 839       0.092100
     12 O3          -0.9360     0.4930     2.4120 oh         1 839      -0.547100
     13 C17         -1.1360    -1.8980     2.5540 ca         1 839      -0.145000
     14 C15         -0.9740    -3.1580     1.9360 cp         1 839      -0.059000
     15 C13         -1.2170    -4.5410     2.3850 cp         1 839      -0.049000
     16 C4          -1.7060    -5.1570     3.5570 ca         1 839      -0.086600
     17 C5          -2.2210    -4.5600     4.8290 c          1 839       0.593600
     18 O1          -2.3210    -3.3970     5.1800 o          1 839      -0.517000
     19 C3          -1.8010    -6.5420     3.6500 ca         1 839      -0.196600
     20 C6          -2.4040    -6.8770     4.9750 c          1 839       0.595600
     21 O2          -2.7000    -7.9590     5.4520 o          1 839      -0.505000
     22 N1          -2.5890    -5.6560     5.5580 ns         1 839      -0.498500
     23 C2          -1.4230    -7.4350     2.6090 cp         1 839       0.045000
     24 C1          -0.9390    -6.8200     1.4180 ca         1 839      -0.121000
     25 C7          -1.5020    -8.9220     2.7100 cp         1 839      -0.036000
     26 C12         -0.8500    -9.6240     3.7520 ca         1 839      -0.079500
     27 C11         -0.9070   -11.0270     3.8230 ca         1 839      -0.115000
     28 C10         -1.6090   -11.7530     2.8470 ca         1 839      -0.108000
     29 C9          -2.2500   -11.0750     1.7970 ca         1 839      -0.115000
     30 C8          -2.1920    -9.6720     1.7270 ca         1 839      -0.079500
     31 H211         1.9960    -4.4520    -0.9440 hc         1 839       0.033700
     32 H212         1.6700    -6.1780    -0.3980 hc         1 839       0.033700
     33 H221        -0.6200    -5.9750    -1.2510 h1         1 839       0.066200
     34 H222        -0.3070    -4.3220    -1.7800 h1         1 839       0.066200
     35 H18          0.2870    -2.1520    -1.1120 ha         1 839       0.139000
     36 H20         -0.0110     0.0840    -0.0190 ha         1 839       0.122000
     37 HO3         -1.2960     0.3740     3.3170 ho         1 839       0.458000
     38 H17         -1.5170    -1.8130     3.5640 ha         1 839       0.134000
     39 HN1         -2.9930    -5.5660     6.4770 hn         1 839       0.334500
     40 H1          -0.6270    -7.4360     0.5790 ha         1 839       0.145000
     41 H12         -0.2940    -9.0740     4.5070 ha         1 839       0.116500
     42 H11         -0.4030   -11.5510     4.6330 ha         1 839       0.107500
     43 H10         -1.6520   -12.8380     2.9010 ha         1 839       0.104000
     44 H9          -2.7900   -11.6350     1.0370 ha         1 839       0.107500
     45 H8          -2.6910    -9.1570     0.9090 ha         1 839       0.116500
@<TRIPOS>BOND
     1     1     2 1   
     2     2     3 1   
     3     2     4 1   
     4     4     5 1   
     5     4    31 1   
     6     4    32 1   
     7     5     6 1   
     8     5    33 1   
     9     5    34 1   
    10     6     7 1   
    11     6     8 1   
    12     7    15 ar  
    13     7    24 ar  
    14     8     9 ar  
    15     8    14 ar  
    16     9    10 ar  
    17     9    35 1   
    18    10    11 ar  
    19    10    36 1   
    20    11    12 1   
    21    11    13 ar  
    22    12    37 1   
    23    13    14 ar  
    24    13    38 1   
    25    14    15 1   
    26    15    16 ar  
    27    16    17 1   
    28    16    19 ar  
    29    17    18 2   
    30    17    22 1   
    31    19    20 1   
    32    19    23 ar  
    33    20    21 2   
    34    20    22 1   
    35    22    39 1   
    36    23    24 ar  
    37    23    25 1   
    38    24    40 1   
    39    25    26 ar  
    40    25    30 ar  
    41    26    27 ar  
    42    26    41 1   
    43    27    28 ar  
    44    27    42 1   
    45    28    29 ar  
    46    28    43 1   
    47    29    30 ar  
    48    29    44 1   
    49    30    45 1   
@<TRIPOS>SUBSTRUCTURE
     1 839         1 TEMP              0 ****  ****    0 ROOT
