@<TRIPOS>MOLECULE
839
   45    49     1     0     0
SMALL
bcc


@<TRIPOS>ATOM
      1 O5           1.1750    -5.9970    -3.2940 o          1 839      -0.833300
      2 C23          1.9670    -5.9470    -2.3310 c          1 839       0.934600
      3 O4           3.1710    -6.2620    -2.3370 o          1 839      -0.833300
      4 C21          1.4060    -5.4420    -0.9880 c3         1 839      -0.239400
      5 C22         -0.0860    -5.1430    -1.0120 c3         1 839       0.055300
      6 N2          -0.5670    -4.6360     0.2580 na         1 839      -0.035300
      7 C14         -0.9580    -5.3870     1.3200 ca         1 839       0.025800
      8 C16         -0.5700    -3.3080     0.6340 ca         1 839      -0.024200
      9 C18         -0.2190    -2.1890    -0.1130 ca         1 839      -0.108000
     10 C20         -0.3130    -0.9490     0.4880 ca         1 839      -0.132000
     11 C19         -0.7470    -0.8150     1.8170 ca         1 839       0.092100
     12 O3          -0.8030     0.4420     2.3150 oh         1 839      -0.508100
     13 C17         -1.0930    -1.9290     2.5620 ca         1 839      -0.163000
     14 C15         -1.0020    -3.1890     1.9670 cp         1 839      -0.059000
     15 C13         -1.2560    -4.5310     2.4180 cp         1 839      -0.049000
     16 C4          -1.6890    -5.1520     3.5750 ca         1 839      -0.086600
     17 C5          -2.1300    -4.5760     4.8710 c          1 839       0.736100
     18 O1          -2.1690    -3.4190     5.2130 o          1 839      -0.592500
     19 C3          -1.8030    -6.5350     3.6540 ca         1 839      -0.196600
     20 C6          -2.3660    -6.8650     4.9840 c          1 839       0.738100
     21 O2          -2.6750    -7.9330     5.4510 o          1 839      -0.580500
     22 N1          -2.5080    -5.6510     5.6400 ns         1 839      -0.632500
     23 C2          -1.4850    -7.3740     2.5800 cp         1 839       0.045000
     24 C1          -1.0640    -6.7740     1.3990 ca         1 839      -0.139000
     25 C7          -1.5610    -8.8490     2.6460 cp         1 839      -0.036000
     26 C12         -0.8520    -9.5610     3.6120 ca         1 839      -0.097500
     27 C11         -0.8870   -10.9460     3.6310 ca         1 839      -0.133000
     28 C10         -1.6380   -11.6400     2.6900 ca         1 839      -0.126000
     29 C9          -2.3460   -10.9400     1.7240 ca         1 839      -0.133000
     30 C8          -2.3030    -9.5520     1.6990 ca         1 839      -0.097500
     31 H211         1.9550    -4.5430    -0.6910 hc         1 839       0.033700
     32 H212         1.6230    -6.1840    -0.2130 hc         1 839       0.033700
     33 H221        -0.6620    -6.0340    -1.2650 h1         1 839       0.066200
     34 H222        -0.3230    -4.4050    -1.7760 h1         1 839       0.066200
     35 H18          0.1200    -2.2710    -1.1370 ha         1 839       0.157000
     36 H20         -0.0480    -0.0600    -0.0700 ha         1 839       0.140000
     37 HO3         -1.1090     0.4240     3.2280 ho         1 839       0.419000
     38 H17         -1.4230    -1.8280     3.5870 ha         1 839       0.152000
     39 HN1         -2.8810    -5.5660     6.5750 hn         1 839       0.334500
     40 H1          -0.7970    -7.3940     0.5520 ha         1 839       0.163000
     41 H12         -0.2540    -9.0300     4.3430 ha         1 839       0.134500
     42 H11         -0.3260   -11.4870     4.3820 ha         1 839       0.125500
     43 H10         -1.6680   -12.7220     2.7090 ha         1 839       0.122000
     44 H9          -2.9320   -11.4720     0.9860 ha         1 839       0.125500
     45 H8          -2.8590    -9.0110     0.9430 ha         1 839       0.134500
@<TRIPOS>BOND
     1     1     2 1   
     2     2     3 1   
     3     2     4 1   
     4     4     5 1   
     5     4    31 1   
     6     4    32 1   
     7     5     6 1   
     8     5    33 1   
     9     5    34 1   
    10     6     7 1   
    11     6     8 1   
    12     7    15 ar  
    13     7    24 ar  
    14     8     9 ar  
    15     8    14 ar  
    16     9    10 ar  
    17     9    35 1   
    18    10    11 ar  
    19    10    36 1   
    20    11    12 1   
    21    11    13 ar  
    22    12    37 1   
    23    13    14 ar  
    24    13    38 1   
    25    14    15 1   
    26    15    16 ar  
    27    16    17 1   
    28    16    19 ar  
    29    17    18 2   
    30    17    22 1   
    31    19    20 1   
    32    19    23 ar  
    33    20    21 2   
    34    20    22 1   
    35    22    39 1   
    36    23    24 ar  
    37    23    25 1   
    38    24    40 1   
    39    25    26 ar  
    40    25    30 ar  
    41    26    27 ar  
    42    26    41 1   
    43    27    28 ar  
    44    27    42 1   
    45    28    29 ar  
    46    28    43 1   
    47    29    30 ar  
    48    29    44 1   
    49    30    45 1   
@<TRIPOS>SUBSTRUCTURE
     1 839         1 TEMP              0 ****  ****    0 ROOT
