@<TRIPOS>MOLECULE
83A
   52    54     1     0     0
SMALL
No Charge or Current Charge


@<TRIPOS>ATOM
      1 C1           6.7930     0.3740     0.5140 cc         1 83A      -0.305600
      2 N1           8.6090    -0.8250     1.3060 ns         1 83A      -0.456400
      3 O1           8.1560     1.1500     2.3150 o          1 83A      -0.559000
      4 C2           7.8930     0.3090     1.4700 c          1 83A       0.623600
      5 N2           7.3360    -1.7410    -0.5020 nd         1 83A      -0.703100
      6 O2          -5.1330     1.9720    -0.7520 o          1 83A      -0.645100
      7 C3           8.3170    -1.7580     0.3740 cc         1 83A       0.717800
      8 N3           9.1180    -2.8090     0.3400 nv         1 83A      -1.041200
      9 O3          -5.3670    -1.1120     3.0930 o          1 83A      -0.742500
     10 C4           6.5510    -0.6010    -0.4000 cd         1 83A       0.162400
     11 N4           5.4380    -0.2240    -1.1430 na         1 83A      -0.103000
     12 O4          -7.0190     0.2610     3.2060 o          1 83A      -0.742500
     13 C5           4.9770     1.0200    -0.6690 cd         1 83A      -0.158300
     14 N5           1.3020     1.9560    -1.2430 nu         1 83A      -0.987200
     15 O5          -6.5760    -3.2320    -2.3450 o          1 83A      -0.761000
     16 C6           5.8210     1.3840     0.3530 cc         1 83A      -0.094000
     17 N6          -4.6830     0.2550     0.6740 ns         1 83A      -0.424900
     18 O6          -8.5230    -2.3470    -2.1190 o          1 83A      -0.761000
     19 C7           3.7850     1.7550    -1.2310 c3         1 83A      -0.029100
     20 C8           2.4480     1.2230    -0.6730 c3         1 83A       0.231800
     21 C9          -0.0500     1.7570    -0.9690 ca         1 83A       0.307000
     22 C10         -0.9930     2.5860    -1.5870 ca         1 83A      -0.208000
     23 C11         -2.3660     2.4150    -1.3350 ca         1 83A      -0.033500
     24 C12         -2.8180     1.4060    -0.4560 ca         1 83A      -0.144600
     25 C13         -1.8560     0.5720     0.1640 ca         1 83A      -0.033500
     26 C14         -0.4850     0.7500    -0.0940 ca         1 83A      -0.208000
     27 C15         -4.3060     1.2500    -0.2070 c          1 83A       0.601700
     28 C16         -6.0780    -0.1030     1.0350 c3         1 83A      -0.045300
     29 C17         -6.1830    -0.3640     2.5690 c          1 83A       0.720000
     30 C18         -6.6000    -1.3190     0.2220 c3         1 83A      -0.057400
     31 C19         -6.6720    -1.0940    -1.3110 c3         1 83A      -0.201400
     32 C20         -7.3080    -2.3180    -1.9970 c          1 83A       0.712000
     33 H1           9.3780    -0.9720     1.9360 hn         1 83A       0.314500
     34 H2          10.0780    -2.6580     0.6230 hn         1 83A       0.489500
     35 H3           8.9950    -3.3910    -0.4800 hn         1 83A       0.489500
     36 H4           5.0390    -0.7660    -1.8990 hn         1 83A       0.364000
     37 H6           1.5140     2.7150    -1.8910 hn         1 83A       0.463000
     38 H8           5.7620     2.2930     0.9480 ha         1 83A       0.143000
     39 H9          -3.9400    -0.2770     1.1080 hn         1 83A       0.294500
     40 H10          3.8690     2.8240    -1.0000 hc         1 83A       0.056200
     41 H11          3.7790     1.6700    -2.3240 hc         1 83A       0.056200
     42 H12          2.4520     1.3270     0.4210 h1         1 83A       0.040700
     43 H13          2.3620     0.1530    -0.9080 h1         1 83A       0.040700
     44 H14         -0.6690     3.3680    -2.2670 ha         1 83A       0.094000
     45 H15         -3.0780     3.0730    -1.8290 ha         1 83A       0.127000
     46 H16         -2.1500    -0.2210     0.8470 ha         1 83A       0.127000
     47 H17          0.2310     0.0960     0.3950 ha         1 83A       0.094000
     48 H18         -6.7250     0.7560     0.8180 h1         1 83A       0.054700
     49 H19         -5.9680    -2.1920     0.4300 hc         1 83A       0.049700
     50 H20         -7.6040    -1.5700     0.5870 hc         1 83A       0.049700
     51 H21         -7.3000    -0.2060    -1.4530 hc         1 83A       0.009700
     52 H22         -5.6370    -0.9630    -1.6500 hc         1 83A       0.009700
@<TRIPOS>BOND
     1     1     4 1   
     2     1    10 2   
     3     1    16 1   
     4     2     4 1   
     5     2     7 1   
     6     2    33 1   
     7     3     4 2   
     8     5     7 2   
     9     5    10 1   
    10     6    27 2   
    11     7     8 1   
    12     8    34 1   
    13     8    35 1   
    14     9    29 1   
    15    10    11 1   
    16    11    13 1   
    17    11    36 1   
    18    12    29 1   
    19    13    16 2   
    20    13    19 1   
    21    14    20 1   
    22    14    21 1   
    23    14    37 1   
    24    15    32 1   
    25    16    38 1   
    26    17    27 1   
    27    17    28 1   
    28    17    39 1   
    29    18    32 1   
    30    19    20 1   
    31    19    40 1   
    32    19    41 1   
    33    20    42 1   
    34    20    43 1   
    35    21    22 ar  
    36    21    26 ar  
    37    22    23 ar  
    38    22    44 1   
    39    23    24 ar  
    40    23    45 1   
    41    24    25 ar  
    42    24    27 1   
    43    25    26 ar  
    44    25    46 1   
    45    26    47 1   
    46    28    29 1   
    47    28    30 1   
    48    28    48 1   
    49    30    31 1   
    50    30    49 1   
    51    30    50 1   
    52    31    32 1   
    53    31    51 1   
    54    31    52 1   
@<TRIPOS>SUBSTRUCTURE
     1 83A         1 TEMP              0 ****  ****    0 ROOT
