@<TRIPOS>MOLECULE
83A
   52    54     1     0     0
SMALL
bcc


@<TRIPOS>ATOM
      1 C1           6.7320     0.3620     0.4990 cc         1 83A      -0.305600
      2 N1           8.3440    -1.2840     0.8680 ns         1 83A      -0.523400
      3 O1           8.5650     0.6840     1.9860 o          1 83A      -0.634500
      4 C2           7.9220     0.0100     1.1920 c          1 83A       0.766100
      5 N2           6.6320    -1.8090    -0.6500 nd         1 83A      -0.703100
      6 O2          -4.9910     2.4350    -0.5150 o          1 83A      -0.645100
      7 C3           7.7210    -2.1280    -0.0050 cc         1 83A       0.717800
      8 N3           8.2590    -3.3550    -0.1500 nv         1 83A      -0.930800
      9 O3          -5.7320     0.9970     2.4230 o          1 83A      -0.847800
     10 C4           6.1760    -0.5730    -0.3700 cd         1 83A       0.213100
     11 N4           5.0730    -0.0170    -0.9140 na         1 83A      -0.154100
     12 O4          -7.8210     0.7000     1.6980 o          1 83A      -0.847800
     13 C5           4.8990     1.2660    -0.4230 cd         1 83A      -0.107600
     14 N5           1.3520     2.4470    -0.8280 nu         1 83A      -0.793600
     15 O5          -6.0540    -4.2150    -2.2500 o          1 83A      -0.866300
     16 C6           5.9090     1.5260     0.4570 cc         1 83A      -0.112000
     17 N6          -4.6760     0.2740     0.0130 ns         1 83A      -0.491900
     18 O6          -6.8760    -4.2100    -0.1810 o          1 83A      -0.866300
     19 C7           3.7550     2.1110    -0.8540 c3         1 83A      -0.029100
     20 C8           2.4100     1.5980    -0.3420 c3         1 83A       0.231800
     21 C9           0.0290     2.1920    -0.6400 ca         1 83A       0.168600
     22 C10         -0.9260     3.1640    -0.9910 ca         1 83A      -0.226000
     23 C11         -2.2730     2.9150    -0.8560 ca         1 83A      -0.051500
     24 C12         -2.7500     1.6930    -0.3700 ca         1 83A      -0.144600
     25 C13         -1.8010     0.7400    -0.0050 ca         1 83A      -0.051500
     26 C14         -0.4420     0.9730    -0.1270 ca         1 83A      -0.226000
     27 C15         -4.2250     1.5030    -0.2800 c          1 83A       0.668700
     28 C16         -6.0740     0.0100     0.2640 c3         1 83A      -0.045300
     29 C17         -6.5790     0.6400     1.5870 c          1 83A       0.930600
     30 C18         -6.3190    -1.4990     0.2630 c3         1 83A      -0.057400
     31 C19         -6.0170    -2.1620    -1.0720 c3         1 83A      -0.201400
     32 C20         -6.3460    -3.6620    -1.1680 c          1 83A       0.922600
     33 H1           9.1840    -1.6040     1.3330 hn         1 83A       0.314500
     34 H2           9.2200    -3.5160     0.1010 hn         1 83A       0.434300
     35 H3           7.9120    -3.9120    -0.9130 hn         1 83A       0.434300
     36 H4           4.4860    -0.4670    -1.5990 hn         1 83A       0.313700
     37 H6           1.5970     3.4110    -0.9920 hn         1 83A       0.407800
     38 H8           6.0430     2.4450     1.0060 ha         1 83A       0.161000
     39 H9          -4.0210    -0.4340     0.2990 hn         1 83A       0.294500
     40 H10          3.9220     3.1260    -0.4860 hc         1 83A       0.056200
     41 H11          3.7160     2.1710    -1.9460 hc         1 83A       0.056200
     42 H12          2.4280     1.5490     0.7540 h1         1 83A       0.040700
     43 H13          2.2480     0.5790    -0.7020 h1         1 83A       0.040700
     44 H14         -0.5930     4.1200    -1.3790 ha         1 83A       0.112000
     45 H15         -2.9780     3.6850    -1.1380 ha         1 83A       0.145000
     46 H16         -2.0940    -0.2200     0.4040 ha         1 83A       0.145000
     47 H17          0.2480     0.1990     0.1810 ha         1 83A       0.112000
     48 H18         -6.6540     0.4450    -0.5560 h1         1 83A       0.054700
     49 H19         -5.7270    -1.9630     1.0600 hc         1 83A       0.049700
     50 H20         -7.3640    -1.6630     0.5280 hc         1 83A       0.049700
     51 H21         -6.5690    -1.6420    -1.8650 hc         1 83A       0.009700
     52 H22         -4.9630    -2.0320    -1.3380 hc         1 83A       0.009700
@<TRIPOS>BOND
     1     1     4 1   
     2     1    10 2   
     3     1    16 1   
     4     2     4 1   
     5     2     7 1   
     6     2    33 1   
     7     3     4 2   
     8     5     7 2   
     9     5    10 1   
    10     6    27 2   
    11     7     8 1   
    12     8    34 1   
    13     8    35 1   
    14     9    29 1   
    15    10    11 1   
    16    11    13 1   
    17    11    36 1   
    18    12    29 1   
    19    13    16 2   
    20    13    19 1   
    21    14    20 1   
    22    14    21 1   
    23    14    37 1   
    24    15    32 1   
    25    16    38 1   
    26    17    27 1   
    27    17    28 1   
    28    17    39 1   
    29    18    32 1   
    30    19    20 1   
    31    19    40 1   
    32    19    41 1   
    33    20    42 1   
    34    20    43 1   
    35    21    22 ar  
    36    21    26 ar  
    37    22    23 ar  
    38    22    44 1   
    39    23    24 ar  
    40    23    45 1   
    41    24    25 ar  
    42    24    27 1   
    43    25    26 ar  
    44    25    46 1   
    45    26    47 1   
    46    28    29 1   
    47    28    30 1   
    48    28    48 1   
    49    30    31 1   
    50    30    49 1   
    51    30    50 1   
    52    31    32 1   
    53    31    51 1   
    54    31    52 1   
@<TRIPOS>SUBSTRUCTURE
     1 83A         1 TEMP              0 ****  ****    0 ROOT
