@<TRIPOS>MOLECULE
83D
   29    30     1     0     0
SMALL
bcc


@<TRIPOS>ATOM
      1 C13         -4.5150     0.0900    -0.0610 ca         1 83D      -0.262000
      2 C6           3.1310     1.0860     0.1190 ca         1 83D      -0.059000
      3 C1          -2.3120     1.0850    -0.2460 ca         1 83D      -0.222500
      4 C5           2.1690     0.0970    -0.1010 ca         1 83D      -0.131800
      5 C8           4.9040    -0.5330    -0.0490 ca         1 83D       0.158100
      6 C3          -0.2840    -0.4070     0.0280 ce         1 83D      -0.172200
      7 C9           3.9550    -1.5300    -0.2770 ca         1 83D      -0.200500
      8 C10          2.6120    -1.2140    -0.3070 ca         1 83D      -0.059000
      9 C11         -2.5430    -1.2760     0.1940 ca         1 83D      -0.222500
     10 C12         -3.9250    -1.1490     0.1680 ca         1 83D       0.175600
     11 F            0.5270     1.7500    -0.2870 f          1 83D      -0.176500
     12 C4           0.7470     0.4320    -0.1160 cf         1 83D       0.209300
     13 O1           6.1980    -0.8920    -0.0370 oh         1 83D      -0.489100
     14 C7           4.4800     0.7780     0.1480 ca         1 83D      -0.200500
     15 C2          -1.7220    -0.1600    -0.0140 ca         1 83D       0.040200
     16 O2          -4.7480    -2.1980     0.3600 oh         1 83D      -0.494100
     17 C           -3.6990     1.1970    -0.2650 ca         1 83D       0.175600
     18 O           -4.2130     2.4220    -0.4900 oh         1 83D      -0.494100
     19 H1          -5.5960     0.1810    -0.0770 ha         1 83D       0.147000
     20 H3          -1.7240     1.9740    -0.4150 ha         1 83D       0.145500
     21 H4          -0.0100    -1.4380     0.2090 ha         1 83D       0.133000
     22 H5           4.2760    -2.5500    -0.4470 ha         1 83D       0.142500
     23 H6           1.9030    -2.0050    -0.5120 ha         1 83D       0.141000
     24 H7          -2.0930    -2.2450     0.3800 ha         1 83D       0.145500
     25 H8           6.7620    -0.1260     0.1180 ho         1 83D       0.430000
     26 H9           5.2030     1.5660     0.3230 ha         1 83D       0.142500
     27 H10         -4.2370    -3.0050     0.4850 ho         1 83D       0.427500
     28 H11         -5.1760     2.3930    -0.4740 ho         1 83D       0.427500
     29 H2           2.8390     2.1140     0.2810 ha         1 83D       0.141000
@<TRIPOS>BOND
     1     1    10 ar  
     2     1    17 ar  
     3     1    19 1   
     4     2     4 ar  
     5     2    14 ar  
     6     2    29 1   
     7     3    15 ar  
     8     3    17 ar  
     9     3    20 1   
    10     4     8 ar  
    11     4    12 1   
    12     5     7 ar  
    13     5    13 1   
    14     5    14 ar  
    15     6    12 2   
    16     6    15 1   
    17     6    21 1   
    18     7     8 ar  
    19     7    22 1   
    20     8    23 1   
    21     9    10 ar  
    22     9    15 ar  
    23     9    24 1   
    24    10    16 1   
    25    11    12 1   
    26    13    25 1   
    27    14    26 1   
    28    16    27 1   
    29    17    18 1   
    30    18    28 1   
@<TRIPOS>SUBSTRUCTURE
     1 83D         1 TEMP              0 ****  ****    0 ROOT
