@<TRIPOS>MOLECULE
83D
   29    30     1     0     0
SMALL
No Charge or Current Charge


@<TRIPOS>ATOM
      1 C13         -4.5530     0.1650    -0.0290 ca         1 83D      -0.244000
      2 C6           3.1460     1.0000     0.4390 ca         1 83D      -0.041000
      3 C1          -2.3240     0.9660    -0.5680 ca         1 83D      -0.204500
      4 C5           2.2000     0.0530    -0.0190 ca         1 83D      -0.131800
      5 C8           4.9770    -0.4980    -0.1270 ca         1 83D       0.158100
      6 C3          -0.2960    -0.4940    -0.1590 ce         1 83D      -0.222200
      7 C9           4.0540    -1.4440    -0.5890 ca         1 83D      -0.182500
      8 C10          2.6750    -1.1740    -0.5390 ca         1 83D      -0.041000
      9 C11         -2.6180    -1.2510     0.3710 ca         1 83D      -0.204500
     10 C12         -4.0050    -1.0440     0.4150 ca         1 83D       0.175600
     11 F            0.4220     1.6390     0.3580 f          1 83D      -0.176500
     12 C4           0.7480     0.3630     0.0430 cf         1 83D       0.209300
     13 O1           6.3100    -0.7730    -0.1820 oh         1 83D      -0.528100
     14 C7           4.5240     0.7240     0.3870 ca         1 83D      -0.182500
     15 C2          -1.7630    -0.2420    -0.1110 ca         1 83D       0.040200
     16 O2          -4.8290    -2.0180     0.8890 oh         1 83D      -0.533100
     17 C           -3.7100     1.1680    -0.5230 ca         1 83D       0.175600
     18 O           -4.2340     2.3420    -0.9680 oh         1 83D      -0.533100
     19 H1          -5.6290     0.3130     0.0100 ha         1 83D       0.129000
     20 H3          -1.6890     1.7490    -0.9730 ha         1 83D       0.127500
     21 H4          -0.0610    -1.5360    -0.3580 ha         1 83D       0.183000
     22 H5           4.4060    -2.3900    -0.9920 ha         1 83D       0.124500
     23 H6           1.9900    -1.9260    -0.9190 ha         1 83D       0.123000
     24 H7          -2.1960    -2.1910     0.7170 ha         1 83D       0.127500
     25 H8           6.8000    -0.0040     0.1810 ho         1 83D       0.469000
     26 H9           5.2320     1.4670     0.7480 ha         1 83D       0.124500
     27 H10         -4.2790    -2.7860     1.1530 ho         1 83D       0.466500
     28 H11         -5.2080     2.3020    -0.8620 ho         1 83D       0.466500
     29 H2           2.8200     1.9550     0.8450 ha         1 83D       0.123000
@<TRIPOS>BOND
     1     1    10 ar  
     2     1    17 ar  
     3     1    19 1   
     4     2     4 ar  
     5     2    14 ar  
     6     2    29 1   
     7     3    15 ar  
     8     3    17 ar  
     9     3    20 1   
    10     4     8 ar  
    11     4    12 1   
    12     5     7 ar  
    13     5    13 1   
    14     5    14 ar  
    15     6    12 2   
    16     6    15 1   
    17     6    21 1   
    18     7     8 ar  
    19     7    22 1   
    20     8    23 1   
    21     9    10 ar  
    22     9    15 ar  
    23     9    24 1   
    24    10    16 1   
    25    11    12 1   
    26    13    25 1   
    27    14    26 1   
    28    16    27 1   
    29    17    18 1   
    30    18    28 1   
@<TRIPOS>SUBSTRUCTURE
     1 83D         1 TEMP              0 ****  ****    0 ROOT
