@<TRIPOS>MOLECULE
83E
  127   130     1     0     0
SMALL
abcg2


@<TRIPOS>ATOM
      1 N4          28.3920   115.9700    20.8170 n3         1 83E      -0.688600
      2 C43         29.1300   115.0860    19.9150 c3         1 83E       0.114500
      3 C42         28.2000   114.6540    18.7760 c          1 83E       0.602100
      4 O5          27.0690   114.2080    18.9640 o          1 83E      -0.586100
      5 C44         29.7310   113.7860    20.5240 c3         1 83E      -0.056700
      6 C48         29.1510   116.3850    21.9920 c3         1 83E       0.144600
      7 C47         27.9440   117.1550    20.0830 c3         1 83E       0.144600
      8 C46         28.7820   113.0450    21.4670 c3         1 83E      -0.083600
      9 C45         31.1230   113.9820    21.1320 c3         1 83E      -0.083600
     10 N3          28.7370   114.7700    17.5470 ns         1 83E      -0.493900
     11 C37         28.0800   114.2860    16.3600 c3         1 83E       0.037700
     12 C36         28.4320   112.8070    16.1250 c          1 83E       0.574100
     13 O4          29.1510   112.1810    16.9060 o          1 83E      -0.611100
     14 C38         28.4180   115.1620    15.1450 c3         1 83E      -0.083400
     15 C39         28.2680   116.6690    15.3800 c3         1 83E      -0.059700
     16 C41         28.6340   117.4260    14.1020 c3         1 83E      -0.092600
     17 C40         26.8630   117.0440    15.8520 c3         1 83E      -0.092600
     18 N2          27.9040   112.2470    15.0250 ns         1 83E      -0.499900
     19 C31         28.0370   110.8290    14.6960 c3         1 83E       0.031700
     20 C30         29.3610   110.5490    13.9480 c          1 83E       0.579100
     21 O3          29.3910   110.0710    12.8150 o          1 83E      -0.616100
     22 C32         26.8220   110.3450    13.9190 c3         1 83E      -0.078400
     23 C33         25.4820   110.5020    14.6500 c3         1 83E      -0.061700
     24 C35         24.3490   110.0020    13.7530 c3         1 83E      -0.090100
     25 C34         25.4650   109.7810    16.0000 c3         1 83E      -0.090100
     26 C18         33.8960   110.2940    16.8920 c          1 83E       0.617100
     27 C19         32.5990   109.6380    16.4710 c3         1 83E      -0.155400
     28 N1          30.4500   110.8600    14.6680 ns         1 83E      -0.511900
     29 C21         31.8270   110.6570    14.2310 c3         1 83E       0.113700
     30 C22         32.6340   111.9380    14.4310 c3         1 83E      -0.093400
     31 C23         32.2170   113.1060    13.5340 c3         1 83E      -0.028100
     32 C24         33.0200   114.3560    13.8130 ca         1 83E      -0.078300
     33 C29         34.4150   114.3490    13.7170 ca         1 83E      -0.113500
     34 C28         35.1580   115.4890    13.9990 ca         1 83E      -0.108500
     35 C27         34.5190   116.6690    14.3740 ca         1 83E      -0.107000
     36 C26         33.1330   116.6930    14.4630 ca         1 83E      -0.108500
     37 C25         32.3960   115.5450    14.1910 ca         1 83E      -0.113500
     38 C20         32.4480   109.4500    14.9580 c3         1 83E      -0.079400
     39 O2          34.9030   110.2600    16.2010 o          1 83E      -0.592100
     40 C1          34.9640   111.6180    20.0780 c2         1 83E       0.142900
     41 C2          33.6780   111.3550    20.3820 ce         1 83E      -0.419200
     42 C3          32.9880   110.9260    19.1800 c          1 83E       0.595200
     43 C4          35.2410   111.4280    18.6170 c5         1 83E       0.136900
     44 C6          34.8080   113.9300    18.2150 ca         1 83E      -0.081300
     45 C7          33.6290   114.1380    17.5010 ca         1 83E      -0.097500
     46 C9          33.1820   116.2000    18.6930 cp         1 83E      -0.036000
     47 C10         34.3590   115.9850    19.4200 ca         1 83E      -0.100000
     48 C11         35.1530   114.8700    19.1870 ca         1 83E      -0.097500
     49 C13         31.6230   117.9690    17.8520 ca         1 83E      -0.106000
     50 C14         30.8700   119.1210    18.0390 ca         1 83E      -0.110500
     51 C15         30.8330   119.7390    19.2860 ca         1 83E      -0.107000
     52 N           33.9540   110.9110    18.1320 n          1 83E      -0.406400
     53 O           35.9610   112.0520    20.8240 os         1 83E      -0.319100
     54 C           35.6640   112.3510    22.2020 c3         1 83E       0.143900
     55 C5          35.6870   112.7410    17.9330 c3         1 83E      -0.028100
     56 C8          32.8300   115.2440    17.7350 ca         1 83E      -0.100000
     57 C12         32.3540   117.4060    18.9070 cp         1 83E      -0.033000
     58 C17         32.2950   118.0310    20.1570 ca         1 83E      -0.106000
     59 C16         31.5450   119.1860    20.3450 ca         1 83E      -0.110500
     60 H11         29.9700   115.6400    19.4650 h1         1 83E       0.024700
     61 H19         29.8860   113.1340    19.6570 hc         1 83E       0.068700
     62 H13         29.3340   115.5450    22.6560 h1         1 83E       0.033200
     63 H14         30.1150   116.8440    21.7330 h1         1 83E       0.033200
     64 H15         28.5630   117.1220    22.5410 h1         1 83E       0.033200
     65 H18         27.2760   116.8700    19.2710 h1         1 83E       0.033200
     66 H16         27.3970   117.8130    20.7580 h1         1 83E       0.033200
     67 H17         28.7860   117.7190    19.6530 h1         1 83E       0.033200
     68 H22         27.8110   112.8800    21.0020 hc         1 83E       0.036367
     69 H20         29.2090   112.0730    21.7230 hc         1 83E       0.036367
     70 H21         28.6220   113.5920    22.3970 hc         1 83E       0.036367
     71 H24         31.8000   114.4410    20.4100 hc         1 83E       0.036367
     72 H25         31.1130   114.5980    22.0300 hc         1 83E       0.036367
     73 H23         31.5370   113.0110    21.4040 hc         1 83E       0.036367
     74 H26         29.6880   115.0940    17.4680 hn         1 83E       0.317500
     75 H27         27.0080   114.3190    16.5560 h1         1 83E       0.100700
     76 H28         27.7670   114.8750    14.3150 hc         1 83E       0.046700
     77 H29         29.4390   114.9440    14.8310 hc         1 83E       0.046700
     78 H30         28.9770   116.9660    16.1580 hc         1 83E       0.046700
     79 H31         29.6480   117.1870    13.7750 hc         1 83E       0.037700
     80 H32         27.9480   117.1670    13.2900 hc         1 83E       0.037700
     81 H33         28.5740   118.5050    14.2610 hc         1 83E       0.037700
     82 H34         26.6130   116.5780    16.8070 hc         1 83E       0.037700
     83 H35         26.7770   118.1250    15.9800 hc         1 83E       0.037700
     84 H36         26.1140   116.7310    15.1180 hc         1 83E       0.037700
     85 H37         27.3670   112.8190    14.3910 hn         1 83E       0.320500
     86 H38         28.1070   110.2980    15.6470 h1         1 83E       0.088700
     87 H39         26.7780   110.8740    12.9630 hc         1 83E       0.062200
     88 H40         26.9800   109.2900    13.6820 hc         1 83E       0.062200
     89 H41         25.3150   111.5680    14.8360 hc         1 83E       0.040700
     90 H42         23.3780   110.1550    14.2280 hc         1 83E       0.036700
     91 H43         24.3450   110.5240    12.7940 hc         1 83E       0.036700
     92 H44         24.4600   108.9320    13.5530 hc         1 83E       0.036700
     93 H45         26.1950   110.1980    16.6960 hc         1 83E       0.036700
     94 H46         24.4810   109.8640    16.4650 hc         1 83E       0.036700
     95 H47         25.6890   108.7180    15.8730 hc         1 83E       0.036700
     96 H9          31.7590   110.1710    16.9040 hc         1 83E       0.086200
     97 H10         32.6010   108.6620    16.9690 hc         1 83E       0.086200
     98 H48         30.2860   111.2320    15.5980 hn         1 83E       0.344500
     99 H49         31.7780   110.4200    13.1690 h1         1 83E       0.081700
    100 H50         32.5380   112.2450    15.4740 hc         1 83E       0.053200
    101 H51         33.6860   111.7060    14.2690 hc         1 83E       0.053200
    102 H52         32.3460   112.8090    12.4880 hc         1 83E       0.051200
    103 H53         31.1550   113.3210    13.6740 hc         1 83E       0.051200
    104 H54         34.9280   113.4410    13.4240 ha         1 83E       0.109000
    105 H55         36.2380   115.4590    13.9240 ha         1 83E       0.110500
    106 H56         35.0980   117.5570    14.5960 ha         1 83E       0.114000
    107 H57         32.6210   117.6030    14.7530 ha         1 83E       0.110500
    108 H58         31.3190   115.5730    14.2800 ha         1 83E       0.109000
    109 H59         31.8070   108.5860    14.7770 hc         1 83E       0.064700
    110 H60         33.4180   109.2310    14.5130 hc         1 83E       0.064700
    111 H1          33.1830   111.4320    21.3340 ha         1 83E       0.226000
    112 H2          36.0170   110.6770    18.4610 h1         1 83E       0.097700
    113 H3          33.3420   113.4400    16.7320 ha         1 83E       0.117500
    114 H4          34.6770   116.7130    20.1550 ha         1 83E       0.110000
    115 H5          36.0680   114.7410    19.7510 ha         1 83E       0.117500
    116 H7          30.3170   119.5380    17.2080 ha         1 83E       0.114500
    117 H8          30.2440   120.6360    19.4330 ha         1 83E       0.115000
    118 H61         36.5910   112.7120    22.6340 h1         1 83E       0.054367
    119 H62         34.8930   113.1200    22.2520 h1         1 83E       0.054367
    120 H63         35.3300   111.4480    22.7140 h1         1 83E       0.054367
    121 H64         36.7030   112.9420    18.2740 hc         1 83E       0.072700
    122 H65         35.7300   112.5440    16.8630 hc         1 83E       0.072700
    123 H66         31.9330   115.3720    17.1470 ha         1 83E       0.110000
    124 H67         32.8250   117.6020    20.9970 ha         1 83E       0.113500
    125 H68         31.5070   119.6460    21.3240 ha         1 83E       0.114500
    126 O1          31.8120   110.6270    19.0640 o          1 83E      -0.500000
    127 H6          31.6630   117.5140    16.8720 ha         1 83E       0.113500
@<TRIPOS>BOND
     1     1     2 1   
     2     1     6 1   
     3     1     7 1   
     4     2     3 1   
     5     2     5 1   
     6     2    60 1   
     7     3     4 2   
     8     3    10 1   
     9     5     8 1   
    10     5     9 1   
    11     5    61 1   
    12     6    62 1   
    13     6    63 1   
    14     6    64 1   
    15     7    65 1   
    16     7    66 1   
    17     7    67 1   
    18     8    68 1   
    19     8    69 1   
    20     8    70 1   
    21     9    71 1   
    22     9    72 1   
    23     9    73 1   
    24    10    11 1   
    25    10    74 1   
    26    11    12 1   
    27    11    14 1   
    28    11    75 1   
    29    12    13 2   
    30    12    18 1   
    31    14    15 1   
    32    14    76 1   
    33    14    77 1   
    34    15    16 1   
    35    15    17 1   
    36    15    78 1   
    37    16    79 1   
    38    16    80 1   
    39    16    81 1   
    40    17    82 1   
    41    17    83 1   
    42    17    84 1   
    43    18    19 1   
    44    18    85 1   
    45    19    20 1   
    46    19    22 1   
    47    19    86 1   
    48    20    21 2   
    49    20    28 1   
    50    22    23 1   
    51    22    87 1   
    52    22    88 1   
    53    23    24 1   
    54    23    25 1   
    55    23    89 1   
    56    24    90 1   
    57    24    91 1   
    58    24    92 1   
    59    25    93 1   
    60    25    94 1   
    61    25    95 1   
    62    26    27 1   
    63    26    39 2   
    64    26    52 1   
    65    27    38 1   
    66    27    96 1   
    67    27    97 1   
    68    28    29 1   
    69    28    98 1   
    70    29    30 1   
    71    29    38 1   
    72    29    99 1   
    73    30    31 1   
    74    30   100 1   
    75    30   101 1   
    76    31    32 1   
    77    31   102 1   
    78    31   103 1   
    79    32    33 ar  
    80    32    37 ar  
    81    33    34 ar  
    82    33   104 1   
    83    34    35 ar  
    84    34   105 1   
    85    35    36 ar  
    86    35   106 1   
    87    36    37 ar  
    88    36   107 1   
    89    37   108 1   
    90    38   109 1   
    91    38   110 1   
    92    40    41 2   
    93    40    43 1   
    94    40    53 1   
    95    41    42 1   
    96    41   111 1   
    97    42    52 1   
    98    42   126 2   
    99    43    52 1   
   100    43    55 1   
   101    43   112 1   
   102    44    45 ar  
   103    44    48 ar  
   104    44    55 1   
   105    45    56 ar  
   106    45   113 1   
   107    46    47 ar  
   108    46    56 ar  
   109    46    57 1   
   110    47    48 ar  
   111    47   114 1   
   112    48   115 1   
   113    49    50 ar  
   114    49    57 ar  
   115    49   127 1   
   116    50    51 ar  
   117    50   116 1   
   118    51    59 ar  
   119    51   117 1   
   120    53    54 1   
   121    54   118 1   
   122    54   119 1   
   123    54   120 1   
   124    55   121 1   
   125    55   122 1   
   126    56   123 1   
   127    57    58 ar  
   128    58    59 ar  
   129    58   124 1   
   130    59   125 1   
@<TRIPOS>SUBSTRUCTURE
     1 83E         1 TEMP              0 ****  ****    0 ROOT
