@<TRIPOS>MOLECULE
83E
  127   130     1     0     0
SMALL
No Charge or Current Charge


@<TRIPOS>ATOM
      1 N4          28.3710   115.7540    21.4810 n3         1 83E      -0.688600
      2 C43         29.1290   114.7760    20.6040 c3         1 83E       0.114500
      3 C42         28.3100   114.1750    19.4070 c          1 83E       0.602100
      4 O5          27.2220   113.6220    19.5310 o          1 83E      -0.586100
      5 C44         29.8570   113.5610    21.3420 c3         1 83E      -0.056700
      6 C48         29.1890   116.4400    22.5090 c3         1 83E       0.144600
      7 C47         27.5820   116.7340    20.6930 c3         1 83E       0.144600
      8 C46         29.0100   112.9370    22.4810 c3         1 83E      -0.083600
      9 C45         31.2950   113.9080    21.8030 c3         1 83E      -0.083600
     10 N3          28.8870   114.3600    18.1440 ns         1 83E      -0.493900
     11 C37         28.2720   113.9990    16.8190 c3         1 83E       0.037700
     12 C36         28.4800   112.4910    16.4820 c          1 83E       0.574100
     13 O4          28.9990   111.6900    17.2470 o          1 83E      -0.611100
     14 C38         28.7360   114.9690    15.6950 c3         1 83E      -0.083400
     15 C39         28.5460   116.4830    16.0000 c3         1 83E      -0.059700
     16 C41         29.0560   117.3430    14.8230 c3         1 83E      -0.092600
     17 C40         27.0850   116.8510    16.3500 c3         1 83E      -0.092600
     18 N2          28.0520   112.1000    15.2290 ns         1 83E      -0.499900
     19 C31         27.9600   110.6920    14.7640 c3         1 83E       0.031700
     20 C30         29.3310   110.1300    14.2670 c          1 83E       0.579100
     21 O3          29.4320   109.0550    13.6900 o          1 83E      -0.616100
     22 C32         26.8470   110.5470    13.6900 c3         1 83E      -0.078400
     23 C33         25.4380   111.0670    14.1000 c3         1 83E      -0.061700
     24 C35         24.4420   110.9400    12.9260 c3         1 83E      -0.090100
     25 C34         24.8880   110.3670    15.3660 c3         1 83E      -0.090100
     26 C18         33.9100   110.5540    17.0250 c          1 83E       0.617100
     27 C19         32.5310   109.9900    16.6140 c3         1 83E      -0.155400
     28 N1          30.4260   110.9380    14.4800 ns         1 83E      -0.511900
     29 C21         31.8130   110.6040    14.1550 c3         1 83E       0.113700
     30 C22         32.6700   111.8910    14.1160 c3         1 83E      -0.093400
     31 C23         32.2700   112.8990    13.0100 c3         1 83E      -0.028100
     32 C24         32.9560   114.2550    13.1690 ca         1 83E      -0.078300
     33 C29         34.3590   114.3460    13.2780 ca         1 83E      -0.113500
     34 C28         34.9800   115.5960    13.4430 ca         1 83E      -0.108500
     35 C27         34.2050   116.7670    13.4890 ca         1 83E      -0.107000
     36 C26         32.8090   116.6860    13.3640 ca         1 83E      -0.108500
     37 C25         32.1860   115.4350    13.2070 ca         1 83E      -0.113500
     38 C20         32.3670   109.5290    15.1330 c3         1 83E      -0.079400
     39 O2          34.8540   110.5020    16.2480 o          1 83E      -0.592100
     40 C1          35.2530   111.7330    20.2330 c2         1 83E       0.142900
     41 C2          33.9780   111.5020    20.5590 ce         1 83E      -0.419200
     42 C3          33.2130   111.1180    19.3850 c          1 83E       0.595200
     43 C4          35.4580   111.5770    18.7250 c5         1 83E       0.136900
     44 C6          34.8520   114.0350    18.1240 ca         1 83E      -0.081300
     45 C7          34.0610   114.3200    16.9970 ca         1 83E      -0.097500
     46 C9          32.9740   116.1780    18.1810 cp         1 83E      -0.036000
     47 C10         33.7730   115.8710    19.3110 ca         1 83E      -0.100000
     48 C11         34.6990   114.8150    19.2830 ca         1 83E      -0.097500
     49 C13         31.8000   118.1140    17.0330 ca         1 83E      -0.106000
     50 C14         30.9300   119.2180    17.0540 ca         1 83E      -0.110500
     51 C15         30.2620   119.5650    18.2390 ca         1 83E      -0.107000
     52 N           34.0950   111.1080    18.3050 n          1 83E      -0.406400
     53 O           36.3280   112.0830    21.0040 os         1 83E      -0.319100
     54 C           36.1410   112.2490    22.4190 c3         1 83E       0.143900
     55 C5          35.8890   112.9160    18.0680 c3         1 83E      -0.028100
     56 C8          33.1320   115.3730    17.0250 ca         1 83E      -0.100000
     57 C12         32.0260   117.3360    18.1970 cp         1 83E      -0.033000
     58 C17         31.3490   117.7130    19.3840 ca         1 83E      -0.106000
     59 C16         30.4750   118.8140    19.4050 ca         1 83E      -0.110500
     60 H11         29.9280   115.3490    20.1160 h1         1 83E       0.024700
     61 H19         30.0230   112.7140    20.6370 hc         1 83E       0.068700
     62 H13         29.5680   115.7360    23.2580 h1         1 83E       0.033200
     63 H14         30.0390   116.9640    22.0550 h1         1 83E       0.033200
     64 H15         28.5860   117.1810    23.0520 h1         1 83E       0.033200
     65 H18         26.8250   116.2350    20.0760 h1         1 83E       0.033200
     66 H16         27.0520   117.4320    21.3550 h1         1 83E       0.033200
     67 H17         28.2320   117.3190    20.0290 h1         1 83E       0.033200
     68 H22         28.0160   112.6560    22.1140 hc         1 83E       0.036367
     69 H20         29.4940   112.0310    22.8660 hc         1 83E       0.036367
     70 H21         28.8820   113.6290    23.3190 hc         1 83E       0.036367
     71 H24         31.9050   114.2300    20.9500 hc         1 83E       0.036367
     72 H25         31.3160   114.7020    22.5550 hc         1 83E       0.036367
     73 H23         31.7760   113.0270    22.2430 hc         1 83E       0.036367
     74 H26         29.7880   114.8220    18.1330 hn         1 83E       0.317500
     75 H27         27.1880   114.1100    16.9380 h1         1 83E       0.100700
     76 H28         28.1960   114.7360    14.7690 hc         1 83E       0.046700
     77 H29         29.7980   114.7810    15.4910 hc         1 83E       0.046700
     78 H30         29.1630   116.7370    16.8710 hc         1 83E       0.046700
     79 H31         30.1210   117.1580    14.6450 hc         1 83E       0.037700
     80 H32         28.5070   117.1130    13.9020 hc         1 83E       0.037700
     81 H33         28.9310   118.4110    15.0370 hc         1 83E       0.037700
     82 H34         26.7600   116.3530    17.2710 hc         1 83E       0.037700
     83 H35         26.9870   117.9310    16.5110 hc         1 83E       0.037700
     84 H36         26.4040   116.5630    15.5400 hc         1 83E       0.037700
     85 H37         27.6410   112.8200    14.6450 hn         1 83E       0.320500
     86 H38         27.6920   110.0700    15.6280 h1         1 83E       0.088700
     87 H39         27.1710   111.0770    12.7850 hc         1 83E       0.062200
     88 H40         26.7620   109.4890    13.4110 hc         1 83E       0.062200
     89 H41         25.5190   112.1380    14.3280 hc         1 83E       0.040700
     90 H42         23.4660   111.3580    13.1980 hc         1 83E       0.036700
     91 H43         24.8070   111.4830    12.0460 hc         1 83E       0.036700
     92 H44         24.2990   109.8890    12.6460 hc         1 83E       0.036700
     93 H45         25.5200   110.5710    16.2380 hc         1 83E       0.036700
     94 H46         23.8790   110.7290    15.5990 hc         1 83E       0.036700
     95 H47         24.8360   109.2810    15.2210 hc         1 83E       0.036700
     96 H9          31.7520   110.7010    16.9070 hc         1 83E       0.086200
     97 H10         32.3250   109.1610    17.2980 hc         1 83E       0.086200
     98 H48         30.2410   111.8020    14.9710 hn         1 83E       0.344500
     99 H49         31.8230   110.1660    13.1460 h1         1 83E       0.081700
    100 H50         32.5950   112.3930    15.0870 hc         1 83E       0.053200
    101 H51         33.7210   111.6120    13.9780 hc         1 83E       0.053200
    102 H52         32.5160   112.4710    12.0310 hc         1 83E       0.051200
    103 H53         31.1820   113.0350    13.0160 hc         1 83E       0.051200
    104 H54         34.9730   113.4500    13.2380 ha         1 83E       0.109000
    105 H55         36.0620   115.6580    13.5340 ha         1 83E       0.110500
    106 H56         34.6860   117.7340    13.6150 ha         1 83E       0.114000
    107 H57         32.2100   117.5930    13.3900 ha         1 83E       0.110500
    108 H58         31.1040   115.3860    13.1150 ha         1 83E       0.109000
    109 H59         31.6850   108.6700    15.1190 hc         1 83E       0.064700
    110 H60         33.3170   109.1410    14.7470 hc         1 83E       0.064700
    111 H1          33.5320   111.5400    21.5470 ha         1 83E       0.226000
    112 H2          36.2220   110.8150    18.5200 h1         1 83E       0.097700
    113 H3          34.1790   113.7350    16.0900 ha         1 83E       0.117500
    114 H4          33.6960   116.4740    20.2120 ha         1 83E       0.110000
    115 H5          35.3110   114.6180    20.1600 ha         1 83E       0.117500
    116 H7          30.7760   119.8050    16.1520 ha         1 83E       0.114500
    117 H8          29.5870   120.4170    18.2550 ha         1 83E       0.115000
    118 H61         37.0870   112.5300    22.8990 h1         1 83E       0.054367
    119 H62         35.4060   113.0380    22.6250 h1         1 83E       0.054367
    120 H63         35.7900   111.3160    22.8780 h1         1 83E       0.054367
    121 H64         36.8190   113.2600    18.5370 hc         1 83E       0.072700
    122 H65         36.1600   112.7270    17.0230 hc         1 83E       0.072700
    123 H66         32.5350   115.5680    16.1400 ha         1 83E       0.110000
    124 H67         31.4990   117.1440    20.2960 ha         1 83E       0.113500
    125 H68         29.9650   119.0850    20.3270 ha         1 83E       0.114500
    126 O1          32.0350   110.8130    19.3910 o          1 83E      -0.500000
    127 H6          32.3190   117.8730    16.1100 ha         1 83E       0.113500
@<TRIPOS>BOND
     1     1     2 1   
     2     1     6 1   
     3     1     7 1   
     4     2     3 1   
     5     2     5 1   
     6     2    60 1   
     7     3     4 2   
     8     3    10 1   
     9     5     8 1   
    10     5     9 1   
    11     5    61 1   
    12     6    62 1   
    13     6    63 1   
    14     6    64 1   
    15     7    65 1   
    16     7    66 1   
    17     7    67 1   
    18     8    68 1   
    19     8    69 1   
    20     8    70 1   
    21     9    71 1   
    22     9    72 1   
    23     9    73 1   
    24    10    11 1   
    25    10    74 1   
    26    11    12 1   
    27    11    14 1   
    28    11    75 1   
    29    12    13 2   
    30    12    18 1   
    31    14    15 1   
    32    14    76 1   
    33    14    77 1   
    34    15    16 1   
    35    15    17 1   
    36    15    78 1   
    37    16    79 1   
    38    16    80 1   
    39    16    81 1   
    40    17    82 1   
    41    17    83 1   
    42    17    84 1   
    43    18    19 1   
    44    18    85 1   
    45    19    20 1   
    46    19    22 1   
    47    19    86 1   
    48    20    21 2   
    49    20    28 1   
    50    22    23 1   
    51    22    87 1   
    52    22    88 1   
    53    23    24 1   
    54    23    25 1   
    55    23    89 1   
    56    24    90 1   
    57    24    91 1   
    58    24    92 1   
    59    25    93 1   
    60    25    94 1   
    61    25    95 1   
    62    26    27 1   
    63    26    39 2   
    64    26    52 1   
    65    27    38 1   
    66    27    96 1   
    67    27    97 1   
    68    28    29 1   
    69    28    98 1   
    70    29    30 1   
    71    29    38 1   
    72    29    99 1   
    73    30    31 1   
    74    30   100 1   
    75    30   101 1   
    76    31    32 1   
    77    31   102 1   
    78    31   103 1   
    79    32    33 ar  
    80    32    37 ar  
    81    33    34 ar  
    82    33   104 1   
    83    34    35 ar  
    84    34   105 1   
    85    35    36 ar  
    86    35   106 1   
    87    36    37 ar  
    88    36   107 1   
    89    37   108 1   
    90    38   109 1   
    91    38   110 1   
    92    40    41 2   
    93    40    43 1   
    94    40    53 1   
    95    41    42 1   
    96    41   111 1   
    97    42    52 1   
    98    42   126 2   
    99    43    52 1   
   100    43    55 1   
   101    43   112 1   
   102    44    45 ar  
   103    44    48 ar  
   104    44    55 1   
   105    45    56 ar  
   106    45   113 1   
   107    46    47 ar  
   108    46    56 ar  
   109    46    57 1   
   110    47    48 ar  
   111    47   114 1   
   112    48   115 1   
   113    49    50 ar  
   114    49    57 ar  
   115    49   127 1   
   116    50    51 ar  
   117    50   116 1   
   118    51    59 ar  
   119    51   117 1   
   120    53    54 1   
   121    54   118 1   
   122    54   119 1   
   123    54   120 1   
   124    55   121 1   
   125    55   122 1   
   126    56   123 1   
   127    57    58 ar  
   128    58    59 ar  
   129    58   124 1   
   130    59   125 1   
@<TRIPOS>SUBSTRUCTURE
     1 83E         1 TEMP              0 ****  ****    0 ROOT
