@<TRIPOS>MOLECULE
83F
   73    74     1     0     0
SMALL
abcg2


@<TRIPOS>ATOM
      1 C1          25.6220     5.1470   -30.4360 c3         1 83F      -0.082100
      2 C10         17.9160     8.0330   -26.4100 c5         1 83F       0.101000
      3 C11         16.9970     5.8740   -26.6590 c          1 83F       0.563000
      4 C12         20.7170     2.9650   -24.7650 c3         1 83F       0.151600
      5 C13         23.2760     6.1620   -30.4440 c5         1 83F       0.108000
      6 C14         20.7740     6.2440   -30.0850 c          1 83F       0.595100
      7 C15         20.6270     7.5030   -30.9380 c3         1 83F       0.065700
      8 C17         18.8270     7.2290   -35.5050 c3         1 83F       0.219000
      9 C18         17.4550     6.6760   -35.8690 c3         1 83F      -0.108100
     10 C19         18.9230     8.7070   -35.8710 c3         1 83F      -0.108100
     11 C2          24.1260     4.8940   -30.3450 c5         1 83F      -0.080700
     12 C20         19.9280     6.3950   -36.1500 c3         1 83F      -0.108100
     13 C21         20.1650     8.6820   -30.0520 c3         1 83F      -0.073700
     14 C22         19.9910     9.9490   -30.8890 c3         1 83F      -0.092600
     15 C23         21.1400     8.9180   -28.8980 c3         1 83F      -0.092600
     16 C3          23.6640     4.2940   -29.0120 c5         1 83F      -0.083400
     17 C4          22.1570     4.5930   -28.9590 c5         1 83F       0.030700
     18 C5          21.7070     4.9430   -27.5380 c          1 83F       0.598100
     19 C6          20.3690     4.1910   -25.6020 c3         1 83F       0.104700
     20 C7          18.8600     4.4430   -25.6750 c3         1 83F      -0.069400
     21 C8          18.4990     5.6870   -26.4720 c5         1 83F      -0.159700
     22 C9          18.9520     7.0300   -25.8820 c5         1 83F      -0.091400
     23 N1          20.9370     4.0230   -26.9330 ns         1 83F      -0.494900
     24 N2          16.7350     7.1940   -26.5840 ns         1 83F      -0.516900
     25 N3          21.9980     5.7500   -29.8510 n          1 83F      -0.393800
     26 N4          19.6800     7.2060   -31.9940 ns         1 83F      -0.501900
     27 O1          22.0850     5.9820   -27.0020 o          1 83F      -0.610100
     28 O4          19.7620     5.7210   -29.6050 o          1 83F      -0.631100
     29 O5          20.9550     7.9300   -33.7400 o          1 83F      -0.561000
     30 O6          18.8580     7.0690   -34.0390 os         1 83F      -0.482100
     31 H2          26.1780     4.2120   -30.3460 hc         1 83F       0.041367
     32 H3          25.8860     5.6050   -31.3920 hc         1 83F       0.041367
     33 H1          25.9500     5.8160   -29.6360 hc         1 83F       0.041367
     34 H16         18.2270     8.4650   -27.3660 h1         1 83F       0.042700
     35 H15         17.7170     8.8460   -25.7130 h1         1 83F       0.042700
     36 H21         23.7220     6.9750   -29.8640 h1         1 83F       0.062200
     37 H22         23.1450     6.4920   -31.4710 h1         1 83F       0.062200
     38 H23         21.5620     7.7740   -31.4190 h1         1 83F       0.089700
     39 H27         17.3710     5.6300   -35.5700 hc         1 83F       0.050922
     40 H25         16.6670     7.2480   -35.3760 hc         1 83F       0.050922
     41 H26         17.3090     6.7420   -36.9480 hc         1 83F       0.050922
     42 H30         19.9000     9.1130   -35.6230 hc         1 83F       0.050922
     43 H28         18.7570     8.8190   -36.9430 hc         1 83F       0.050922
     44 H29         18.1550     9.2760   -35.3440 hc         1 83F       0.050922
     45 H4          23.8190     4.2230   -31.1530 hc         1 83F       0.058700
     46 H31         20.9140     6.7890   -35.9160 hc         1 83F       0.050922
     47 H32         19.8670     5.3600   -35.8080 hc         1 83F       0.050922
     48 H33         19.7940     6.4050   -37.2330 hc         1 83F       0.050922
     49 H34         19.1930     8.4000   -29.6360 hc         1 83F       0.059700
     50 H37         19.6020    10.7580   -30.2680 hc         1 83F       0.041700
     51 H35         20.9500    10.2720   -31.3030 hc         1 83F       0.041700
     52 H36         19.2980     9.7940   -31.7160 hc         1 83F       0.041700
     53 H40         20.8070     9.7610   -28.2910 hc         1 83F       0.041700
     54 H38         21.2260     8.0480   -28.2470 hc         1 83F       0.041700
     55 H39         22.1380     9.1540   -29.2790 hc         1 83F       0.041700
     56 H6          23.8650     3.2280   -28.9280 hc         1 83F       0.064700
     57 H5          24.1670     4.8080   -28.1900 hc         1 83F       0.064700
     58 H7          21.5700     3.7590   -29.3460 h1         1 83F       0.069700
     59 H9          20.8650     5.0570   -25.1650 h1         1 83F       0.093700
     60 H11         18.4770     4.5310   -24.6560 hc         1 83F       0.065200
     61 H10         18.3780     3.5710   -26.1270 hc         1 83F       0.065200
     62 H12         18.9000     5.5900   -27.4870 hc         1 83F       0.101700
     63 H14         18.9000     6.9880   -24.7910 hc         1 83F       0.064700
     64 H13         19.9670     7.2950   -26.1680 hc         1 83F       0.064700
     65 H8          20.5970     3.2510   -27.4890 hn         1 83F       0.315500
     66 H17         15.8260     7.5650   -26.8170 hn         1 83F       0.323500
     67 H24         18.7950     6.7980   -31.7350 hn         1 83F       0.342500
     68 H18         20.2360     2.0780   -25.1950 h1         1 83F       0.026200
     69 H19         21.8010     2.8150   -24.7900 h1         1 83F       0.026200
     70 H20         20.4450     2.3910   -22.9140 ho         1 83F       0.447000
     71 C16         19.9220     7.4440   -33.3020 c          1 83F       0.651100
     72 O3          20.2660     3.1860   -23.4300 oh         1 83F      -0.662000
     73 O2          16.1700     4.9890   -26.8700 o          1 83F      -0.568000
@<TRIPOS>BOND
     1     1    11 1   
     2     1    31 1   
     3     1    32 1   
     4     1    33 1   
     5     2    22 1   
     6     2    24 1   
     7     2    34 1   
     8     2    35 1   
     9     3    21 1   
    10     3    24 1   
    11     3    73 2   
    12     4    19 1   
    13     4    68 1   
    14     4    69 1   
    15     4    72 1   
    16     5    11 1   
    17     5    25 1   
    18     5    36 1   
    19     5    37 1   
    20     6     7 1   
    21     6    25 1   
    22     6    28 2   
    23     7    13 1   
    24     7    26 1   
    25     7    38 1   
    26     8     9 1   
    27     8    10 1   
    28     8    12 1   
    29     8    30 1   
    30     9    39 1   
    31     9    40 1   
    32     9    41 1   
    33    10    42 1   
    34    10    43 1   
    35    10    44 1   
    36    11    16 1   
    37    11    45 1   
    38    12    46 1   
    39    12    47 1   
    40    12    48 1   
    41    13    14 1   
    42    13    15 1   
    43    13    49 1   
    44    14    50 1   
    45    14    51 1   
    46    14    52 1   
    47    15    53 1   
    48    15    54 1   
    49    15    55 1   
    50    16    17 1   
    51    16    56 1   
    52    16    57 1   
    53    17    18 1   
    54    17    25 1   
    55    17    58 1   
    56    18    23 1   
    57    18    27 2   
    58    19    20 1   
    59    19    23 1   
    60    19    59 1   
    61    20    21 1   
    62    20    60 1   
    63    20    61 1   
    64    21    22 1   
    65    21    62 1   
    66    22    63 1   
    67    22    64 1   
    68    23    65 1   
    69    24    66 1   
    70    26    67 1   
    71    26    71 1   
    72    29    71 2   
    73    30    71 1   
    74    70    72 1   
@<TRIPOS>SUBSTRUCTURE
     1 83F         1 TEMP              0 ****  ****    0 ROOT
