@<TRIPOS>MOLECULE
83F
   73    74     1     0     0
SMALL
No Charge or Current Charge


@<TRIPOS>ATOM
      1 C1          25.7150     4.5320   -30.0280 c3         1 83F      -0.082100
      2 C10         16.6260     6.3080   -27.4880 c5         1 83F       0.101000
      3 C11         16.6180     4.0620   -26.6950 c          1 83F       0.563000
      4 C12         21.1060     3.8880   -24.0980 c3         1 83F       0.151600
      5 C13         23.4820     5.7990   -30.4750 c5         1 83F       0.108000
      6 C14         21.0340     6.4690   -30.2090 c          1 83F       0.595100
      7 C15         21.1610     7.6370   -31.2460 c3         1 83F       0.065700
      8 C17         18.2740     7.9340   -35.2670 c3         1 83F       0.219000
      9 C18         16.7370     7.7800   -35.2680 c3         1 83F      -0.108100
     10 C19         18.6620     9.3610   -35.7330 c3         1 83F      -0.108100
     11 C2          24.1790     4.5470   -29.8720 c5         1 83F      -0.080700
     12 C20         18.9180     6.8170   -36.1280 c3         1 83F      -0.108100
     13 C21         21.3670     9.0320   -30.5610 c3         1 83F      -0.073700
     14 C22         21.3330    10.2140   -31.5650 c3         1 83F      -0.092600
     15 C23         22.6540     9.1130   -29.7030 c3         1 83F      -0.092600
     16 C3          23.6830     4.5900   -28.4050 c5         1 83F      -0.083400
     17 C4          22.1650     4.8620   -28.6020 c5         1 83F       0.030700
     18 C5          21.5790     5.4210   -27.2660 c          1 83F       0.598100
     19 C6          20.3160     4.5340   -25.2680 c3         1 83F       0.104700
     20 C7          18.8710     3.9880   -25.4170 c3         1 83F      -0.069400
     21 C8          18.0530     4.5930   -26.5950 c5         1 83F      -0.159700
     22 C9          17.8410     6.1320   -26.5360 c5         1 83F      -0.091400
     23 N1          21.0490     4.3790   -26.5320 ns         1 83F      -0.494900
     24 N2          15.8670     5.0990   -27.1760 ns         1 83F      -0.516900
     25 N3          22.2030     5.8360   -29.7270 n          1 83F      -0.393800
     26 N4          19.9550     7.6360   -32.1050 ns         1 83F      -0.501900
     27 O1          21.5580     6.5880   -26.8920 o          1 83F      -0.610100
     28 O4          19.9350     6.1220   -29.7830 o          1 83F      -0.631100
     29 O5          20.9400     8.0210   -34.1350 o          1 83F      -0.561000
     30 O6          18.6490     7.7580   -33.8800 os         1 83F      -0.482100
     31 H2          26.1480     3.6390   -29.5610 hc         1 83F       0.041367
     32 H3          26.0030     4.5300   -31.0860 hc         1 83F       0.041367
     33 H1          26.1720     5.4110   -29.5580 hc         1 83F       0.041367
     34 H16         16.9400     6.3210   -28.5410 h1         1 83F       0.042700
     35 H15         16.0680     7.2300   -27.2780 h1         1 83F       0.042700
     36 H21         24.0680     6.7080   -30.2900 h1         1 83F       0.062200
     37 H22         23.3360     5.6900   -31.5580 h1         1 83F       0.062200
     38 H23         22.0290     7.4330   -31.8820 h1         1 83F       0.089700
     39 H27         16.4440     6.7900   -34.8990 hc         1 83F       0.050922
     40 H25         16.2690     8.5360   -34.6270 hc         1 83F       0.050922
     41 H26         16.3340     7.8960   -36.2820 hc         1 83F       0.050922
     42 H30         19.7440     9.4680   -35.8700 hc         1 83F       0.050922
     43 H28         18.1910     9.5900   -36.6960 hc         1 83F       0.050922
     44 H29         18.3290    10.1120   -35.0070 hc         1 83F       0.050922
     45 H4          23.8050     3.6410   -30.3650 hc         1 83F       0.058700
     46 H31         19.9950     6.9700   -36.2600 hc         1 83F       0.050922
     47 H32         18.7620     5.8330   -35.6700 hc         1 83F       0.050922
     48 H33         18.4690     6.7990   -37.1280 hc         1 83F       0.050922
     49 H34         20.5230     9.1790   -29.8750 hc         1 83F       0.059700
     50 H37         21.5080    11.1660   -31.0500 hc         1 83F       0.041700
     51 H35         22.1060    10.0950   -32.3330 hc         1 83F       0.041700
     52 H36         20.3590    10.2900   -32.0620 hc         1 83F       0.041700
     53 H40         22.7380    10.0980   -29.2280 hc         1 83F       0.041700
     54 H38         22.6510     8.3680   -28.9010 hc         1 83F       0.041700
     55 H39         23.5460     8.9620   -30.3220 hc         1 83F       0.041700
     56 H6          23.8740     3.6560   -27.8650 hc         1 83F       0.064700
     57 H5          24.1700     5.3990   -27.8450 hc         1 83F       0.064700
     58 H7          21.6210     3.9560   -28.8990 h1         1 83F       0.069700
     59 H9          20.2390     5.6060   -25.0410 h1         1 83F       0.093700
     60 H11         18.3300     4.1640   -24.4780 hc         1 83F       0.065200
     61 H10         18.9220     2.8980   -25.5350 hc         1 83F       0.065200
     62 H12         18.5390     4.3550   -27.5490 hc         1 83F       0.101700
     63 H14         17.5890     6.4620   -25.5210 hc         1 83F       0.064700
     64 H13         18.7150     6.7050   -26.8640 hc         1 83F       0.064700
     65 H8          21.1280     3.4510   -26.9300 hn         1 83F       0.315500
     66 H17         14.8610     4.9910   -27.2390 hn         1 83F       0.323500
     67 H24         19.0560     7.4490   -31.6800 hn         1 83F       0.342500
     68 H18         21.1750     2.8050   -24.2650 h1         1 83F       0.026200
     69 H19         22.1290     4.2890   -24.0990 h1         1 83F       0.026200
     70 H20         21.0290     3.7290   -22.1420 ho         1 83F       0.447000
     71 C16         19.9460     7.8310   -33.4540 c          1 83F       0.651100
     72 O3          20.4790     4.1590   -22.8350 oh         1 83F      -0.662000
     73 O2          16.1310     3.0390   -26.2400 o          1 83F      -0.568000
@<TRIPOS>BOND
     1     1    11 1   
     2     1    31 1   
     3     1    32 1   
     4     1    33 1   
     5     2    22 1   
     6     2    24 1   
     7     2    34 1   
     8     2    35 1   
     9     3    21 1   
    10     3    24 1   
    11     3    73 2   
    12     4    19 1   
    13     4    68 1   
    14     4    69 1   
    15     4    72 1   
    16     5    11 1   
    17     5    25 1   
    18     5    36 1   
    19     5    37 1   
    20     6     7 1   
    21     6    25 1   
    22     6    28 2   
    23     7    13 1   
    24     7    26 1   
    25     7    38 1   
    26     8     9 1   
    27     8    10 1   
    28     8    12 1   
    29     8    30 1   
    30     9    39 1   
    31     9    40 1   
    32     9    41 1   
    33    10    42 1   
    34    10    43 1   
    35    10    44 1   
    36    11    16 1   
    37    11    45 1   
    38    12    46 1   
    39    12    47 1   
    40    12    48 1   
    41    13    14 1   
    42    13    15 1   
    43    13    49 1   
    44    14    50 1   
    45    14    51 1   
    46    14    52 1   
    47    15    53 1   
    48    15    54 1   
    49    15    55 1   
    50    16    17 1   
    51    16    56 1   
    52    16    57 1   
    53    17    18 1   
    54    17    25 1   
    55    17    58 1   
    56    18    23 1   
    57    18    27 2   
    58    19    20 1   
    59    19    23 1   
    60    19    59 1   
    61    20    21 1   
    62    20    60 1   
    63    20    61 1   
    64    21    22 1   
    65    21    62 1   
    66    22    63 1   
    67    22    64 1   
    68    23    65 1   
    69    24    66 1   
    70    26    67 1   
    71    26    71 1   
    72    29    71 2   
    73    30    71 1   
    74    70    72 1   
@<TRIPOS>SUBSTRUCTURE
     1 83F         1 TEMP              0 ****  ****    0 ROOT
