@<TRIPOS>MOLECULE
83H
   50    54     1     0     0
SMALL
bcc


@<TRIPOS>ATOM
      1 C4           0.1500     1.0350    -0.0150 ca         1 83H      -0.063200
      2 C5           0.0980    -0.3650    -0.1830 ca         1 83H      -0.072800
      3 C6           1.2890    -1.1070    -0.2790 ca         1 83H      -0.116000
      4 C7          -1.7940    -2.1340    -0.3630 c3         1 83H      -0.003200
      5 C8          -2.0000     0.4230    -0.0580 cc         1 83H       0.013700
      6 C9          -1.2780    -0.7400    -0.2080 cd         1 83H      -0.099400
      7 C10         -3.4330     0.5830    -0.0240 cc         1 83H      -0.036100
      8 C11         -4.4410    -0.3660    -0.0520 cd         1 83H      -0.226600
      9 C12         -4.3420    -1.8550    -0.1180 c3         1 83H       0.006900
     10 C15         -5.6330     0.3890    -0.0000 cd         1 83H       0.320600
     11 C23          4.6850     0.1090    -0.1300 c          1 83H       0.709500
     12 N16          3.7710    -0.8880    -0.2660 n          1 83H      -0.374000
     13 C27          4.1050    -2.2920    -0.3740 c3         1 83H       0.108000
     14 C28          3.9770    -3.0290     0.9510 c3         1 83H      -0.115100
     15 C17          3.9420     1.4370     0.0290 c5         1 83H      -0.080700
     16 C26          4.3090     2.0620     1.3770 c3         1 83H      -0.070100
     17 C25          4.3090     2.3730    -1.1230 c3         1 83H      -0.070100
     18 C2           2.5050     0.9980    -0.0240 ca         1 83H      -0.105300
     19 C3           1.3540     1.7400     0.0670 ca         1 83H      -0.095000
     20 C1           2.4630    -0.3990    -0.1950 ca         1 83H       0.037600
     21 N7          -1.1350     1.4850     0.0520 na         1 83H      -0.172400
     22 C47         -3.0550    -2.4580     0.4370 c3         1 83H      -0.071400
     23 C48         -7.0290    -0.1300    -0.0060 c3         1 83H      -0.121400
     24 N14         -5.3790     1.6840     0.0550 nc         1 83H      -0.510800
     25 N13         -4.0550     1.7840     0.0400 na         1 83H      -0.014600
     26 H6           1.2680    -2.1820    -0.4090 ha         1 83H       0.144000
     27 H7          -1.9740    -2.3580    -1.4200 hc         1 83H       0.047200
     28 H7A         -1.0040    -2.8230    -0.0530 hc         1 83H       0.047200
     29 H12         -5.1860    -2.2800     0.4320 hc         1 83H       0.046700
     30 H12A        -4.4750    -2.1910    -1.1530 hc         1 83H       0.046700
     31 H27          3.4560    -2.7410    -1.1270 h1         1 83H       0.059200
     32 H27A         5.1230    -2.3630    -0.7520 h1         1 83H       0.059200
     33 H28          4.6470    -2.6070     1.7000 hc         1 83H       0.043700
     34 H28A         2.9590    -2.9820     1.3400 hc         1 83H       0.043700
     35 H28B         4.2360    -4.0790     0.8180 hc         1 83H       0.043700
     36 H26          5.3730     2.2970     1.4150 hc         1 83H       0.045200
     37 H26A         3.7540     2.9880     1.5270 hc         1 83H       0.045200
     38 H26B         4.0760     1.3920     2.2060 hc         1 83H       0.045200
     39 H25          4.0530     1.9400    -2.0900 hc         1 83H       0.045200
     40 H25A         3.7710     3.3170    -1.0240 hc         1 83H       0.045200
     41 H25B         5.3770     2.5930    -1.1160 hc         1 83H       0.045200
     42 H3           1.3740     2.8160     0.1980 ha         1 83H       0.138000
     43 HN7         -1.3860     2.4450     0.2140 hn         1 83H       0.293700
     44 H47         -3.1790    -3.5430     0.4470 hc         1 83H       0.044700
     45 H47A        -2.9200    -2.1540     1.4780 hc         1 83H       0.044700
     46 H48         -7.1860    -0.8660     0.7850 hc         1 83H       0.047367
     47 H48A        -7.7430     0.6780     0.1400 hc         1 83H       0.047367
     48 H48B        -7.2690    -0.6220    -0.9510 hc         1 83H       0.047367
     49 HN13        -3.6400     2.7010     0.0650 hn         1 83H       0.314700
     50 O24          5.8920    -0.0360    -0.1310 o          1 83H      -0.608500
@<TRIPOS>BOND
     1     1     2 ar  
     2     1    19 ar  
     3     1    21 1   
     4     2     3 ar  
     5     2     6 1   
     6     3    20 ar  
     7     3    26 1   
     8     4     6 1   
     9     4    22 1   
    10     4    27 1   
    11     4    28 1   
    12     5     6 2   
    13     5     7 1   
    14     5    21 1   
    15     7     8 2   
    16     7    25 1   
    17     8     9 1   
    18     8    10 1   
    19     9    22 1   
    20     9    29 1   
    21     9    30 1   
    22    10    23 1   
    23    10    24 2   
    24    11    12 1   
    25    11    15 1   
    26    11    50 2   
    27    12    13 1   
    28    12    20 1   
    29    13    14 1   
    30    13    31 1   
    31    13    32 1   
    32    14    33 1   
    33    14    34 1   
    34    14    35 1   
    35    15    16 1   
    36    15    17 1   
    37    15    18 1   
    38    16    36 1   
    39    16    37 1   
    40    16    38 1   
    41    17    39 1   
    42    17    40 1   
    43    17    41 1   
    44    18    19 ar  
    45    18    20 ar  
    46    19    42 1   
    47    21    43 1   
    48    22    44 1   
    49    22    45 1   
    50    23    46 1   
    51    23    47 1   
    52    23    48 1   
    53    24    25 1   
    54    25    49 1   
@<TRIPOS>SUBSTRUCTURE
     1 83H         1 TEMP              0 ****  ****    0 ROOT
