@<TRIPOS>MOLECULE
83H
   50    54     1     0     0
SMALL
No Charge or Current Charge


@<TRIPOS>ATOM
      1 C4           0.1480     1.0390    -0.0200 ca         1 83H      -0.063200
      2 C5           0.1010    -0.3310    -0.1340 ca         1 83H      -0.072800
      3 C6           1.2670    -1.1140    -0.2200 ca         1 83H      -0.098000
      4 C7          -1.7920    -2.1250    -0.2410 c3         1 83H      -0.003200
      5 C8          -2.0570     0.4670    -0.0240 cc         1 83H       0.013700
      6 C9          -1.3010    -0.7010    -0.1320 cd         1 83H      -0.099400
      7 C10         -3.4880     0.6240     0.0010 cc         1 83H      -0.086800
      8 C11         -4.4720    -0.3270    -0.0650 cd         1 83H      -0.161300
      9 C12         -4.3530    -1.8280    -0.1690 c3         1 83H       0.006900
     10 C15         -5.6940     0.3960    -0.0160 cd         1 83H       0.255300
     11 C23          4.7900     0.0940    -0.0780 c          1 83H       0.567000
     12 N16          3.8050    -0.9080    -0.1930 n          1 83H      -0.214400
     13 C27          4.1360    -2.3240    -0.4370 c3         1 83H       0.108000
     14 C28          4.0710    -3.1780     0.8420 c3         1 83H      -0.115100
     15 C17          3.9870     1.4440     0.0380 c5         1 83H      -0.080700
     16 C26          4.2910     2.1350     1.3910 c3         1 83H      -0.070100
     17 C25          4.3610     2.3960    -1.1260 c3         1 83H      -0.070100
     18 C2           2.5410     0.9750    -0.0510 ca         1 83H      -0.105300
     19 C3           1.3630     1.7440     0.0360 ca         1 83H      -0.077000
     20 C1           2.4850    -0.4060    -0.2080 ca         1 83H      -0.055000
     21 N7          -1.1410     1.5340     0.0480 na         1 83H      -0.222700
     22 C47         -3.1040    -2.4160     0.5100 c3         1 83H      -0.071400
     23 C48         -7.0810    -0.1890    -0.0630 c3         1 83H      -0.121400
     24 N14         -5.5320     1.7030     0.0820 nc         1 83H      -0.510800
     25 N13         -4.1570     1.8410     0.0940 na         1 83H      -0.014200
     26 H6           1.2280    -2.1970    -0.2950 ha         1 83H       0.126000
     27 H7          -1.9080    -2.3980    -1.2970 hc         1 83H       0.047200
     28 H7A         -1.0280    -2.8010     0.1610 hc         1 83H       0.047200
     29 H12         -5.2320    -2.2950     0.2930 hc         1 83H       0.046700
     30 H12A        -4.3720    -2.1310    -1.2230 hc         1 83H       0.046700
     31 H27          3.4370    -2.7280    -1.1800 h1         1 83H       0.059200
     32 H27A         5.1440    -2.3940    -0.8670 h1         1 83H       0.059200
     33 H28          4.7840    -2.8080     1.5880 hc         1 83H       0.043700
     34 H28A         3.0660    -3.1480     1.2790 hc         1 83H       0.043700
     35 H28B         4.3180    -4.2220     0.6160 hc         1 83H       0.043700
     36 H26          5.3520     2.3980     1.4760 hc         1 83H       0.045200
     37 H26A         3.7070     3.0560     1.5090 hc         1 83H       0.045200
     38 H26B         4.0430     1.4760     2.2330 hc         1 83H       0.045200
     39 H25          4.1680     1.9250    -2.0970 hc         1 83H       0.045200
     40 H25A         3.7770     3.3230    -1.0860 hc         1 83H       0.045200
     41 H25B         5.4230     2.6680    -1.0940 hc         1 83H       0.045200
     42 H3           1.3930     2.8250     0.1540 ha         1 83H       0.120000
     43 HN7         -1.3790     2.5140     0.1330 hn         1 83H       0.344000
     44 H47         -3.2290    -3.5050     0.5670 hc         1 83H       0.044700
     45 H47A        -3.0330    -2.0550     1.5430 hc         1 83H       0.044700
     46 H48         -7.2980    -0.7470     0.8550 hc         1 83H       0.047367
     47 H48A        -7.8460     0.5880    -0.1720 hc         1 83H       0.047367
     48 H48B        -7.1840    -0.8780    -0.9090 hc         1 83H       0.047367
     49 HN13        -3.7250     2.7600     0.1610 hn         1 83H       0.365000
     50 O24          6.0030    -0.0880    -0.0830 o          1 83H      -0.533000
@<TRIPOS>BOND
     1     1     2 ar  
     2     1    19 ar  
     3     1    21 1   
     4     2     3 ar  
     5     2     6 1   
     6     3    20 ar  
     7     3    26 1   
     8     4     6 1   
     9     4    22 1   
    10     4    27 1   
    11     4    28 1   
    12     5     6 2   
    13     5     7 1   
    14     5    21 1   
    15     7     8 2   
    16     7    25 1   
    17     8     9 1   
    18     8    10 1   
    19     9    22 1   
    20     9    29 1   
    21     9    30 1   
    22    10    23 1   
    23    10    24 2   
    24    11    12 1   
    25    11    15 1   
    26    11    50 2   
    27    12    13 1   
    28    12    20 1   
    29    13    14 1   
    30    13    31 1   
    31    13    32 1   
    32    14    33 1   
    33    14    34 1   
    34    14    35 1   
    35    15    16 1   
    36    15    17 1   
    37    15    18 1   
    38    16    36 1   
    39    16    37 1   
    40    16    38 1   
    41    17    39 1   
    42    17    40 1   
    43    17    41 1   
    44    18    19 ar  
    45    18    20 ar  
    46    19    42 1   
    47    21    43 1   
    48    22    44 1   
    49    22    45 1   
    50    23    46 1   
    51    23    47 1   
    52    23    48 1   
    53    24    25 1   
    54    25    49 1   
@<TRIPOS>SUBSTRUCTURE
     1 83H         1 TEMP              0 ****  ****    0 ROOT
