@<TRIPOS>MOLECULE
83I
   19    18     1     0     0
SMALL
No Charge or Current Charge


@<TRIPOS>ATOM
      1 C10        115.0440   118.5540   119.9740 c3         1 83I       0.000600
      2 C05        115.2500   119.1300   122.4990 c3         1 83I      -0.256400
      3 C06        113.7290   121.8340   124.5720 c3         1 83I       0.167600
      4 C07        114.3240   120.2750   122.8380 c          1 83I       0.610100
      5 C08        115.7690   119.3310   121.0880 c          1 83I       0.577100
      6 C09        114.2090   122.1940   125.9870 c3         1 83I      -0.098100
      7 O02        114.5620   120.7640   124.0950 os         1 83I      -0.449100
      8 O03        116.7180   120.0730   120.8680 o          1 83I      -0.459100
      9 O04        113.4130   120.6450   122.1130 o          1 83I      -0.471000
     10 Cl1        115.6160   118.9420   118.2820 cl         1 83I      -0.220000
     11 H1         113.9730   118.7800   120.0270 h1         1 83I       0.084200
     12 H2         115.1900   117.4810   120.1450 h1         1 83I       0.084200
     13 H3         114.6420   118.2200   122.5430 hc         1 83I       0.091700
     14 H4         116.0670   119.0900   123.2270 hc         1 83I       0.091700
     15 H5         113.8100   122.7150   123.9210 h1         1 83I       0.051700
     16 H6         112.6750   121.5250   124.6100 h1         1 83I       0.051700
     17 H7         113.6020   123.0100   126.3970 hc         1 83I       0.048033
     18 H8         114.1210   121.3300   126.6560 hc         1 83I       0.048033
     19 H9         115.2550   122.5200   125.9680 hc         1 83I       0.048033
@<TRIPOS>BOND
     1     1     5 1   
     2     1    10 1   
     3     1    11 1   
     4     1    12 1   
     5     2     4 1   
     6     2     5 1   
     7     2    13 1   
     8     2    14 1   
     9     3     6 1   
    10     3     7 1   
    11     3    15 1   
    12     3    16 1   
    13     4     7 1   
    14     4     9 2   
    15     5     8 2   
    16     6    17 1   
    17     6    18 1   
    18     6    19 1   
@<TRIPOS>SUBSTRUCTURE
     1 83I         1 TEMP              0 ****  ****    0 ROOT
