@<TRIPOS>MOLECULE
83I
   19    18     1     0     0
SMALL
bcc


@<TRIPOS>ATOM
      1 C10        115.3310   118.2440   120.0440 c3         1 83I      -0.076000
      2 C05        114.8750   119.3460   122.2730 c3         1 83I      -0.256400
      3 C06        113.8450   121.9530   124.6820 c3         1 83I       0.144400
      4 C07        114.2010   120.5980   122.7760 c          1 83I       0.659100
      5 C08        115.4130   119.5050   120.8680 c          1 83I       0.577100
      6 C09        114.3050   121.9920   126.1180 c3         1 83I      -0.098100
      7 O02        114.4870   120.8340   124.0440 os         1 83I      -0.425900
      8 O03        115.8870   120.5320   120.4650 o          1 83I      -0.459100
      9 O04        113.4620   121.2710   122.1070 o          1 83I      -0.520000
     10 CL1        116.1290   118.4050   118.4710 cl         1 83I      -0.143400
     11 H1         114.2790   117.9960   119.8850 h1         1 83I       0.084200
     12 H2         115.7810   117.4130   120.5900 h1         1 83I       0.084200
     13 H3         114.1520   118.5260   122.3240 hc         1 83I       0.091700
     14 H4         115.7090   119.0490   122.9150 hc         1 83I       0.091700
     15 H5         114.1140   122.8730   124.1590 h1         1 83I       0.051700
     16 H6         112.7610   121.8350   124.6210 h1         1 83I       0.051700
     17 H7         113.8280   122.8320   126.6210 hc         1 83I       0.048033
     18 H8         114.0280   121.0830   126.6530 hc         1 83I       0.048033
     19 H9         115.3830   122.1260   126.1920 hc         1 83I       0.048033
@<TRIPOS>BOND
     1     1     5 1   
     2     1    10 1   
     3     1    11 1   
     4     1    12 1   
     5     2     4 1   
     6     2     5 1   
     7     2    13 1   
     8     2    14 1   
     9     3     6 1   
    10     3     7 1   
    11     3    15 1   
    12     3    16 1   
    13     4     7 1   
    14     4     9 2   
    15     5     8 2   
    16     6    17 1   
    17     6    18 1   
    18     6    19 1   
@<TRIPOS>SUBSTRUCTURE
     1 83I         1 TEMP              0 ****  ****    0 ROOT
