@<TRIPOS>MOLECULE
83J
   58    62     1     0     0
SMALL
No Charge or Current Charge


@<TRIPOS>ATOM
      1 C10          3.7110    -1.4360    -0.6880 c6         1 83J       0.078000
      2 C13          4.9260    -0.1930     1.1680 c          1 83J       0.618700
      3 C15          6.2700    -0.8380     0.9000 ca         1 83J      -0.147600
      4 C17         -2.7170     1.4710    -0.7030 ca         1 83J      -0.043800
      5 C20          7.4310    -0.0340     0.8580 ca         1 83J      -0.075500
      6 C21          6.4080    -2.2390     0.7560 ca         1 83J      -0.075500
      7 C22         -3.2310     2.7650    -0.4790 ca         1 83J       0.153100
      8 C24          7.6720    -2.8120     0.5330 ca         1 83J      -0.116000
      9 C26          8.8150    -1.9990     0.4670 ca         1 83J      -0.092000
     10 C01          1.7210     0.5680     0.1320 c6         1 83J       0.071000
     11 C04          2.4080    -0.4140     1.1100 c6         1 83J       0.078000
     12 C07          3.0530    -0.5110    -1.7430 c6         1 83J       0.071000
     13 C12          0.9510     0.7860    -2.2730 c          1 83J       0.509100
     14 C14         -0.2660     1.6900    -1.7710 c          1 83J       0.543300
     15 C16         -1.4690     0.9650    -1.2520 cc         1 83J      -0.232400
     16 C18         -1.5520    -0.4260    -1.2150 cd         1 83J      -0.091100
     17 C19         -3.4770     0.3730    -0.3690 ca         1 83J      -0.086200
     18 C23          8.6930    -0.6100     0.6350 ca         1 83J      -0.116000
     19 C25         -4.5330     2.8350     0.0840 ca         1 83J       0.227900
     20 C27         -3.0050     5.2210    -0.5730 c3         1 83J       0.142900
     21 C29         -4.7780     0.4990     0.1920 ca         1 83J       0.425500
     22 C31         -6.8820    -0.7060     0.3910 cc         1 83J       0.468400
     23 C33         -6.0770    -2.5080     1.2140 cd         1 83J       0.562300
     24 C35         -6.0240    -3.8910     1.7920 c3         1 83J      -0.114400
     25 N02          1.7920     0.1680    -1.3090 n          1 83J      -0.400800
     26 N05          3.7590    -0.8040     0.6520 n          1 83J      -0.408800
     27 N08         -2.7970    -0.8020    -0.6670 na         1 83J      -0.163700
     28 N28         -5.2830     1.7460     0.4040 nb         1 83J      -0.659000
     29 N30         -5.5190    -0.6580     0.4890 na         1 83J      -0.064200
     30 N32         -7.2610    -1.8970     0.8360 nd         1 83J      -0.708000
     31 N34         -4.9780    -1.7870     1.0370 nc         1 83J      -0.591800
     32 O03          1.1530     0.6160    -3.4760 o          1 83J      -0.586100
     33 O06          4.8440     0.7920     1.8920 o          1 83J      -0.587100
     34 O09         -0.1710     2.9130    -1.8220 o          1 83J      -0.481100
     35 H1           3.1310    -2.3670    -0.6180 h1         1 83J       0.065700
     36 H2           4.7130    -1.7030    -1.0470 h1         1 83J       0.065700
     37 H3           7.3540     1.0440     0.9890 ha         1 83J       0.122500
     38 H4           5.5410    -2.8910     0.8330 ha         1 83J       0.122500
     39 H5           7.7660    -3.8900     0.4190 ha         1 83J       0.118000
     40 H6           9.7920    -2.4450     0.2960 ha         1 83J       0.116000
     41 H7           0.6740     0.6770     0.4480 h1         1 83J       0.068700
     42 H8           2.1960     1.5530     0.2400 h1         1 83J       0.068700
     43 H9           2.4490     0.0300     2.1140 h1         1 83J       0.065700
     44 H10          1.7910    -1.3210     1.1900 h1         1 83J       0.065700
     45 H11          3.7790     0.2680    -2.0190 h1         1 83J       0.068700
     46 H12          2.8620    -1.1030    -2.6490 h1         1 83J       0.068700
     47 H13         -0.8290    -1.1780    -1.5270 h4         1 83J       0.231000
     48 H14          9.5790     0.0210     0.5940 ha         1 83J       0.118000
     49 H15         -5.0080     3.7930     0.2880 h4         1 83J       0.032100
     50 H16         -3.9250     5.3890    -1.1460 h1         1 83J       0.047700
     51 H17         -3.2160     5.3870     0.4910 h1         1 83J       0.047700
     52 H18         -2.2650     5.9660    -0.8920 h1         1 83J       0.047700
     53 H19         -7.4990     0.1000     0.0090 h5         1 83J       0.086100
     54 H20         -7.0300    -4.3070     1.9160 hc         1 83J       0.057033
     55 H21         -5.4590    -4.5630     1.1370 hc         1 83J       0.057033
     56 H22         -5.5380    -3.8840     2.7730 hc         1 83J       0.057033
     57 H23         -3.1260    -1.7460    -0.4770 hn         1 83J       0.392000
     58 O11         -2.4990     3.8940    -0.7940 os         1 83J      -0.298100
@<TRIPOS>BOND
     1     1    12 1   
     2     1    26 1   
     3     1    35 1   
     4     1    36 1   
     5     2     3 1   
     6     2    26 1   
     7     2    33 2   
     8     3     5 ar  
     9     3     6 ar  
    10     4     7 ar  
    11     4    15 1   
    12     4    17 ar  
    13     5    18 ar  
    14     5    37 1   
    15     6     8 ar  
    16     6    38 1   
    17     7    19 ar  
    18     7    58 1   
    19     8     9 ar  
    20     8    39 1   
    21     9    18 ar  
    22     9    40 1   
    23    10    11 1   
    24    10    25 1   
    25    10    41 1   
    26    10    42 1   
    27    11    26 1   
    28    11    43 1   
    29    11    44 1   
    30    12    25 1   
    31    12    45 1   
    32    12    46 1   
    33    13    14 1   
    34    13    25 1   
    35    13    32 2   
    36    14    15 1   
    37    14    34 2   
    38    15    16 2   
    39    16    27 1   
    40    16    47 1   
    41    17    21 ar  
    42    17    27 1   
    43    18    48 1   
    44    19    28 ar  
    45    19    49 1   
    46    20    50 1   
    47    20    51 1   
    48    20    52 1   
    49    20    58 1   
    50    21    28 ar  
    51    21    29 1   
    52    22    29 1   
    53    22    30 2   
    54    22    53 1   
    55    23    24 1   
    56    23    30 1   
    57    23    31 2   
    58    24    54 1   
    59    24    55 1   
    60    24    56 1   
    61    27    57 1   
    62    29    31 1   
@<TRIPOS>SUBSTRUCTURE
     1 83J         1 TEMP              0 ****  ****    0 ROOT
