@<TRIPOS>MOLECULE
83J
   58    62     1     0     0
SMALL
abcg2


@<TRIPOS>ATOM
      1 C10          3.5880    -1.0760    -0.6710 c6         1 83J       0.078000
      2 C13          4.7900    -0.2150     1.3340 c          1 83J       0.618700
      3 C15          6.0020    -1.0150     0.9770 ca         1 83J      -0.147600
      4 C17         -2.6220     1.4340    -0.7100 ca         1 83J      -0.043800
      5 C20          7.2060    -0.3510     0.7590 ca         1 83J      -0.075500
      6 C21          5.9730    -2.4080     0.9670 ca         1 83J      -0.075500
      7 C22         -3.2580     2.6840    -0.5860 ca         1 83J       0.153100
      8 C24          7.1360    -3.1270     0.7310 ca         1 83J      -0.116000
      9 C26          8.3310    -2.4600     0.4890 ca         1 83J      -0.092000
     10 C01          2.0270     1.2530    -0.0270 c6         1 83J       0.071000
     11 C04          2.4160     0.2090     1.0080 c6         1 83J       0.078000
     12 C07          3.2010    -0.0490    -1.7260 c6         1 83J       0.071000
     13 C12          0.9550     0.7620    -2.1960 c          1 83J       0.509100
     14 C14         -0.2170     1.6450    -1.7620 c          1 83J       0.543300
     15 C16         -1.3530     0.9530    -1.1930 cc         1 83J      -0.232400
     16 C18         -1.3710    -0.4210    -1.0090 cd         1 83J      -0.091100
     17 C19         -3.3230     0.3010    -0.2660 ca         1 83J      -0.086200
     18 C23          8.3630    -1.0720     0.5000 ca         1 83J      -0.116000
     19 C25         -4.5340     2.6920    -0.0400 ca         1 83J       0.227900
     20 C27         -3.2400     5.0330    -0.8620 c3         1 83J       0.142900
     21 C29         -4.6050     0.4260     0.2710 ca         1 83J       0.425500
     22 C31         -6.5600    -0.7230     1.2660 cc         1 83J       0.468400
     23 C33         -5.7890    -2.6720     1.1630 cd         1 83J       0.562300
     24 C35         -5.6870    -4.1460     1.2960 c3         1 83J      -0.114400
     25 N02          1.9840     0.6480    -1.3480 n          1 83J      -0.400800
     26 N05          3.6530    -0.4540     0.6400 n          1 83J      -0.408800
     27 N08         -2.5310    -0.7970    -0.4650 na         1 83J      -0.163700
     28 N28         -5.1760     1.5920     0.3710 nb         1 83J      -0.659000
     29 N30         -5.3330    -0.6860     0.7230 na         1 83J      -0.064200
     30 N32         -6.8760    -1.9590     1.5540 nd         1 83J      -0.708000
     31 N34         -4.8350    -1.9300     0.6550 nc         1 83J      -0.591800
     32 O03          0.8990     0.2600    -3.3080 o          1 83J      -0.586100
     33 O06          4.8500     0.5890     2.2530 o          1 83J      -0.587100
     34 O09         -0.1320     2.8330    -1.9890 o          1 83J      -0.481100
     35 H1           2.8540    -1.8870    -0.6500 h1         1 83J       0.065700
     36 H2           4.5470    -1.5050    -0.9460 h1         1 83J       0.065700
     37 H3           7.2390     0.7310     0.7790 ha         1 83J       0.122500
     38 H4           5.0460    -2.9350     1.1550 ha         1 83J       0.122500
     39 H5           7.1080    -4.2080     0.7350 ha         1 83J       0.118000
     40 H6           9.2350    -3.0220     0.2940 ha         1 83J       0.116000
     41 H7           1.0570     1.6640     0.2450 h1         1 83J       0.068700
     42 H8           2.7490     2.0740    -0.0230 h1         1 83J       0.068700
     43 H9           2.5190     0.6790     1.9810 h1         1 83J       0.065700
     44 H10          1.6270    -0.5460     1.0820 h1         1 83J       0.065700
     45 H11          4.0080     0.6810    -1.8410 h1         1 83J       0.068700
     46 H12          3.0570    -0.5440    -2.6830 h1         1 83J       0.068700
     47 H13         -0.6180    -1.1580    -1.2420 h4         1 83J       0.231000
     48 H14          9.2910    -0.5490     0.3120 ha         1 83J       0.118000
     49 H15         -5.0820     3.6160     0.0840 h4         1 83J       0.032100
     50 H16         -4.1550     5.0880    -1.4560 h1         1 83J       0.047700
     51 H17         -3.4780     5.2630     0.1790 h1         1 83J       0.047700
     52 H18         -2.5330     5.7690    -1.2340 h1         1 83J       0.047700
     53 H19         -7.1620     0.1570     1.4250 h5         1 83J       0.086100
     54 H20         -6.4980    -4.6380     0.7580 hc         1 83J       0.057033
     55 H21         -4.7410    -4.5070     0.8990 hc         1 83J       0.057033
     56 H22         -5.7610    -4.4450     2.3420 hc         1 83J       0.057033
     57 H23         -2.8130    -1.7400    -0.2340 hn         1 83J       0.392000
     58 O11         -2.6040     3.7740    -0.9910 os         1 83J      -0.298100
@<TRIPOS>BOND
     1     1    12 1   
     2     1    26 1   
     3     1    35 1   
     4     1    36 1   
     5     2     3 1   
     6     2    26 1   
     7     2    33 2   
     8     3     5 ar  
     9     3     6 ar  
    10     4     7 ar  
    11     4    15 1   
    12     4    17 ar  
    13     5    18 ar  
    14     5    37 1   
    15     6     8 ar  
    16     6    38 1   
    17     7    19 ar  
    18     7    58 1   
    19     8     9 ar  
    20     8    39 1   
    21     9    18 ar  
    22     9    40 1   
    23    10    11 1   
    24    10    25 1   
    25    10    41 1   
    26    10    42 1   
    27    11    26 1   
    28    11    43 1   
    29    11    44 1   
    30    12    25 1   
    31    12    45 1   
    32    12    46 1   
    33    13    14 1   
    34    13    25 1   
    35    13    32 2   
    36    14    15 1   
    37    14    34 2   
    38    15    16 2   
    39    16    27 1   
    40    16    47 1   
    41    17    21 ar  
    42    17    27 1   
    43    18    48 1   
    44    19    28 ar  
    45    19    49 1   
    46    20    50 1   
    47    20    51 1   
    48    20    52 1   
    49    20    58 1   
    50    21    28 ar  
    51    21    29 1   
    52    22    29 1   
    53    22    30 2   
    54    22    53 1   
    55    23    24 1   
    56    23    30 1   
    57    23    31 2   
    58    24    54 1   
    59    24    55 1   
    60    24    56 1   
    61    27    57 1   
    62    29    31 1   
@<TRIPOS>SUBSTRUCTURE
     1 83J         1 TEMP              0 ****  ****    0 ROOT
