@<TRIPOS>MOLECULE
83K
  121   124     1     0     0
SMALL
No Charge or Current Charge


@<TRIPOS>ATOM
      1 N5          58.1220    11.6560    47.6030 n3         1 83K      -0.754600
      2 C39         59.1350    10.7290    46.9570 c3         1 83K       0.105500
      3 C38         58.7190    10.1300    45.5670 c          1 83K       0.604100
      4 O5          59.4180     9.3730    44.9040 o          1 83K      -0.612100
      5 C40         59.7280     9.6390    47.9660 c3         1 83K      -0.063700
      6 C44         56.9450    10.9980    48.2270 c3         1 83K       0.153100
      7 C43         58.7320    12.6670    48.4990 c3         1 83K       0.153100
      8 C42         58.9520     8.2920    47.9720 c3         1 83K      -0.090100
      9 C41         61.2280     9.3850    47.6870 c3         1 83K      -0.090100
     10 N4          57.4610    10.5370    45.1210 ns         1 83K      -0.487900
     11 C33         56.6990    10.0410    43.9240 c3         1 83K       0.040700
     12 C32         56.2670    11.2220    43.0060 c          1 83K       0.593100
     13 O4          56.3510    12.3970    43.3400 o          1 83K      -0.651100
     14 C34         55.4910     9.1690    44.3720 c3         1 83K      -0.087400
     15 C35         55.8440     7.9260    45.2390 c3         1 83K      -0.056700
     16 C37         56.7070     6.8930    44.4770 c3         1 83K      -0.092600
     17 C36         54.5680     7.2610    45.7990 c3         1 83K      -0.092600
     18 N3          55.7620    10.8510    41.7750 ns         1 83K      -0.480900
     19 C27         55.4850    11.7800    40.6470 c3         1 83K       0.029700
     20 C26         53.9820    11.7400    40.2170 c          1 83K       0.584100
     21 O3          53.6050    12.0680    39.1000 o          1 83K      -0.604100
     22 C28         56.4480    11.4800    39.4620 c3         1 83K      -0.080400
     23 C29         57.9690    11.5520    39.7870 c3         1 83K      -0.060700
     24 C31         58.8110    11.0820    38.5800 c3         1 83K      -0.088600
     25 C30         58.4140    12.9600    40.2470 c3         1 83K      -0.088600
     26 N2          53.1090    11.2290    41.1580 ns         1 83K      -0.501900
     27 C17         51.6740    10.9700    40.9650 c3         1 83K       0.106700
     28 C18         51.1160    10.1740    42.1700 c3         1 83K      -0.093400
     29 C19         51.7730     8.7920    42.3970 c3         1 83K      -0.028100
     30 C20         51.2500     8.1090    43.6560 ca         1 83K      -0.083300
     31 C25         51.5010     8.6700    44.9250 ca         1 83K      -0.108000
     32 C24         51.0160     8.0450    46.0860 ca         1 83K      -0.109500
     33 C23         50.2810     6.8520    45.9880 ca         1 83K      -0.115000
     34 C22         50.0300     6.2850    44.7280 ca         1 83K      -0.109500
     35 C21         50.5130     6.9120    43.5650 ca         1 83K      -0.108000
     36 C16         50.8510    12.2590    40.6540 c3         1 83K      -0.077400
     37 C15         50.9820    13.4390    41.6620 c3         1 83K      -0.149400
     38 C14         50.1810    13.3390    42.9770 c          1 83K       0.622100
     39 O2          49.2620    12.5400    43.0920 o          1 83K      -0.572100
     40 N1          54.4440    13.0050    45.3250 na         1 83K      -0.214700
     41 C2          51.0120    15.9880    45.3440 ce         1 83K      -0.430200
     42 C4          50.0120    13.8530    45.4300 c5         1 83K       0.136900
     43 C5          50.7780    12.6690    46.0860 c3         1 83K       0.000800
     44 C6          52.2810    12.8410    46.0710 cc         1 83K      -0.163400
     45 C8          54.3690    13.5470    46.5910 ca         1 83K      -0.058200
     46 N           50.5350    14.1560    44.0600 n          1 83K      -0.409400
     47 C3          51.1850    15.3850    44.0320 c          1 83K       0.598200
     48 O1          51.7310    15.9160    43.0810 o          1 83K      -0.527000
     49 C1          50.3140    15.1740    46.1430 c2         1 83K       0.153900
     50 O           49.8720    15.3360    47.4280 os         1 83K      -0.305100
     51 C           50.1790    16.5590    48.1160 c3         1 83K       0.141900
     52 C9          53.0950    13.4600    47.0800 ca         1 83K      -0.094800
     53 C10         52.7620    13.9320    48.3580 ca         1 83K      -0.065000
     54 C11         53.7840    14.5190    49.1340 ca         1 83K      -0.147000
     55 C12         55.1000    14.6200    48.6240 ca         1 83K      -0.101000
     56 C13         55.4020    14.1300    47.3360 ca         1 83K      -0.133000
     57 C7          53.1400    12.5580    45.0140 cd         1 83K      -0.140100
     58 H7          59.9810    11.3690    46.6750 h1         1 83K       0.080700
     59 H15         59.7020     9.9920    49.0200 hc         1 83K       0.038700
     60 H9          56.1890    11.7430    48.5060 h1         1 83K       0.036867
     61 H10         56.4700    10.2840    47.5430 h1         1 83K       0.036867
     62 H11         57.2330    10.4610    49.1400 h1         1 83K       0.036867
     63 H14         59.5250    13.2210    47.9790 h1         1 83K       0.036867
     64 H12         57.9790    13.3940    48.8320 h1         1 83K       0.036867
     65 H13         59.1680    12.1980    49.3900 h1         1 83K       0.036867
     66 H18         59.3520     7.6270    48.7470 hc         1 83K       0.039867
     67 H16         57.8880     8.4370    48.1840 hc         1 83K       0.039867
     68 H17         59.0400     7.7700    47.0130 hc         1 83K       0.039867
     69 H20         61.6510     8.7020    48.4330 hc         1 83K       0.039867
     70 H21         61.3820     8.9420    46.6960 hc         1 83K       0.039867
     71 H19         61.7900    10.3250    47.7340 hc         1 83K       0.039867
     72 H22         57.0190    11.2130    45.7360 hn         1 83K       0.343500
     73 H23         57.3830     9.4260    43.3280 h1         1 83K       0.078700
     74 H24         54.7970     9.8080    44.9320 hc         1 83K       0.058200
     75 H25         54.9480     8.8240    43.4850 hc         1 83K       0.058200
     76 H26         56.4240     8.2640    46.1060 hc         1 83K       0.047700
     77 H27         56.9250     6.0280    45.1150 hc         1 83K       0.037200
     78 H28         56.1870     6.5350    43.5810 hc         1 83K       0.037200
     79 H29         57.6660     7.3240    44.1700 hc         1 83K       0.037200
     80 H30         53.9960     7.9720    46.4070 hc         1 83K       0.037200
     81 H31         53.9230     6.9030    44.9870 hc         1 83K       0.037200
     82 H32         54.8220     6.4050    46.4360 hc         1 83K       0.037200
     83 H3          55.7430     9.8550    41.5810 hn         1 83K       0.327500
     84 H33         55.6560    12.8090    40.9870 h1         1 83K       0.087700
     85 H34         56.2360    12.1820    38.6450 hc         1 83K       0.060200
     86 H35         56.2150    10.4800    39.0750 hc         1 83K       0.060200
     87 H36         58.1800    10.8550    40.6080 hc         1 83K       0.053700
     88 H37         59.8800    11.0860    38.8270 hc         1 83K       0.034867
     89 H38         58.5380    10.0610    38.2880 hc         1 83K       0.034867
     90 H39         58.6570    11.7390    37.7150 hc         1 83K       0.034867
     91 H40         57.9070    13.2570    41.1720 hc         1 83K       0.034867
     92 H41         59.4930    12.9790    40.4440 hc         1 83K       0.034867
     93 H42         58.1950    13.7110    39.4780 hc         1 83K       0.034867
     94 H43         53.5300    10.9570    42.0360 hn         1 83K       0.322500
     95 H44         51.5810    10.3180    40.0840 h1         1 83K       0.081700
     96 H45         51.2360    10.7710    43.0790 hc         1 83K       0.056700
     97 H46         50.0390    10.0230    42.0330 hc         1 83K       0.056700
     98 H47         51.5970     8.1650    41.5140 hc         1 83K       0.048200
     99 H48         52.8590     8.9040    42.4770 hc         1 83K       0.048200
    100 H49         52.0760     9.5880    45.0140 ha         1 83K       0.112000
    101 H50         51.2140     8.4840    47.0620 ha         1 83K       0.114000
    102 H51         49.9070     6.3670    46.8880 ha         1 83K       0.110000
    103 H52         49.4620     5.3610    44.6500 ha         1 83K       0.114000
    104 H53         50.3110     6.4650    42.5940 ha         1 83K       0.112000
    105 H54         49.7940    11.9940    40.5350 hc         1 83K       0.062700
    106 H55         51.1590    12.6300    39.6690 hc         1 83K       0.062700
    107 H56         52.0300    13.6590    41.8940 hc         1 83K       0.078700
    108 H57         50.6610    14.3710    41.1840 hc         1 83K       0.078700
    109 H2          51.3820    16.9830    45.5710 ha         1 83K       0.224000
    110 H4          48.9330    13.6430    45.4250 h1         1 83K       0.097700
    111 H5          50.4310    12.5350    47.1170 hc         1 83K       0.068700
    112 H6          50.5190    11.7390    45.5660 hc         1 83K       0.068700
    113 H58         49.7640    16.5410    49.1310 h1         1 83K       0.052367
    114 H59         51.2650    16.6990    48.1930 h1         1 83K       0.052367
    115 H60         49.7530    17.4210    47.5870 h1         1 83K       0.052367
    116 H61         51.7490    13.8500    48.7420 ha         1 83K       0.114000
    117 H62         53.5580    14.8960    50.1290 ha         1 83K       0.109000
    118 H63         55.8820    15.0740    49.2280 ha         1 83K       0.106000
    119 H64         56.4120    14.1950    46.9370 ha         1 83K       0.119000
    120 H65         52.9090    12.1260    44.0470 h4         1 83K       0.218000
    121 H1          55.2620    12.9760    44.7120 hn         1 83K       0.378000
@<TRIPOS>BOND
     1     1     2 1   
     2     1     6 1   
     3     1     7 1   
     4     2     3 1   
     5     2     5 1   
     6     2    58 1   
     7     3     4 2   
     8     3    10 1   
     9     5     8 1   
    10     5     9 1   
    11     5    59 1   
    12     6    60 1   
    13     6    61 1   
    14     6    62 1   
    15     7    63 1   
    16     7    64 1   
    17     7    65 1   
    18     8    66 1   
    19     8    67 1   
    20     8    68 1   
    21     9    69 1   
    22     9    70 1   
    23     9    71 1   
    24    10    11 1   
    25    10    72 1   
    26    11    12 1   
    27    11    14 1   
    28    11    73 1   
    29    12    13 2   
    30    12    18 1   
    31    14    15 1   
    32    14    74 1   
    33    14    75 1   
    34    15    16 1   
    35    15    17 1   
    36    15    76 1   
    37    16    77 1   
    38    16    78 1   
    39    16    79 1   
    40    17    80 1   
    41    17    81 1   
    42    17    82 1   
    43    18    19 1   
    44    18    83 1   
    45    19    20 1   
    46    19    22 1   
    47    19    84 1   
    48    20    21 2   
    49    20    26 1   
    50    22    23 1   
    51    22    85 1   
    52    22    86 1   
    53    23    24 1   
    54    23    25 1   
    55    23    87 1   
    56    24    88 1   
    57    24    89 1   
    58    24    90 1   
    59    25    91 1   
    60    25    92 1   
    61    25    93 1   
    62    26    27 1   
    63    26    94 1   
    64    27    28 1   
    65    27    36 1   
    66    27    95 1   
    67    28    29 1   
    68    28    96 1   
    69    28    97 1   
    70    29    30 1   
    71    29    98 1   
    72    29    99 1   
    73    30    31 ar  
    74    30    35 ar  
    75    31    32 ar  
    76    31   100 1   
    77    32    33 ar  
    78    32   101 1   
    79    33    34 ar  
    80    33   102 1   
    81    34    35 ar  
    82    34   103 1   
    83    35   104 1   
    84    36    37 1   
    85    36   105 1   
    86    36   106 1   
    87    37    38 1   
    88    37   107 1   
    89    37   108 1   
    90    38    39 2   
    91    38    46 1   
    92    40    45 1   
    93    40    57 1   
    94    40   121 1   
    95    41    47 1   
    96    41    49 2   
    97    41   109 1   
    98    42    43 1   
    99    42    46 1   
   100    42    49 1   
   101    42   110 1   
   102    43    44 1   
   103    43   111 1   
   104    43   112 1   
   105    44    52 1   
   106    44    57 2   
   107    45    52 ar  
   108    45    56 ar  
   109    46    47 1   
   110    47    48 2   
   111    49    50 1   
   112    50    51 1   
   113    51   113 1   
   114    51   114 1   
   115    51   115 1   
   116    52    53 ar  
   117    53    54 ar  
   118    53   116 1   
   119    54    55 ar  
   120    54   117 1   
   121    55    56 ar  
   122    55   118 1   
   123    56   119 1   
   124    57   120 1   
@<TRIPOS>SUBSTRUCTURE
     1 83K         1 TEMP              0 ****  ****    0 ROOT
