@<TRIPOS>MOLECULE
83K
  121   124     1     0     0
SMALL
abcg2


@<TRIPOS>ATOM
      1 N5          57.9440    11.3360    47.6040 n3         1 83K      -0.754600
      2 C39         58.7330    11.5710    46.4020 c3         1 83K       0.105500
      3 C38         58.2580    10.7030    45.2380 c          1 83K       0.604100
      4 O5          58.8490    10.6560    44.1670 o          1 83K      -0.612100
      5 C40         60.2740    11.5920    46.5850 c3         1 83K      -0.063700
      6 C44         58.3190    10.1840    48.4000 c3         1 83K       0.153100
      7 C43         57.8070    12.5210    48.4250 c3         1 83K       0.153100
      8 C42         60.9710    10.2390    46.4490 c3         1 83K      -0.090100
      9 C41         60.9330    12.6220    45.6700 c3         1 83K      -0.090100
     10 N4          57.1040    10.0530    45.4480 ns         1 83K      -0.487900
     11 C33         56.4040     9.3910    44.3840 c3         1 83K       0.040700
     12 C32         56.0110    10.4120    43.3150 c          1 83K       0.593100
     13 O4          55.6780    11.5530    43.6130 o          1 83K      -0.651100
     14 C34         55.1520     8.7070    44.9370 c3         1 83K      -0.087400
     15 C35         55.4220     7.5820    45.9380 c3         1 83K      -0.056700
     16 C37         56.1740     6.4180    45.3020 c3         1 83K      -0.092600
     17 C36         54.1020     7.1030    46.5330 c3         1 83K      -0.092600
     18 N3          56.0370     9.9640    42.0540 ns         1 83K      -0.480900
     19 C27         55.7560    10.8000    40.9020 c3         1 83K       0.029700
     20 C26         54.2900    10.6180    40.4870 c          1 83K       0.584100
     21 O3          53.9520     9.7900    39.6560 o          1 83K      -0.604100
     22 C28         56.7120    10.4870    39.7590 c3         1 83K      -0.080400
     23 C29         58.1920    10.6840    40.0910 c3         1 83K      -0.060700
     24 C31         59.0320    10.3440    38.8620 c3         1 83K      -0.088600
     25 C30         58.5010    12.1000    40.5690 c3         1 83K      -0.088600
     26 N2          53.4380    11.4320    41.1310 ns         1 83K      -0.501900
     27 C17         51.9930    11.4060    40.9760 c3         1 83K       0.106700
     28 C18         51.3180    10.8700    42.2360 c3         1 83K      -0.093400
     29 C19         51.7170     9.4340    42.5780 c3         1 83K      -0.028100
     30 C20         50.9860     8.9440    43.7980 ca         1 83K      -0.083300
     31 C25         51.3670     9.3730    45.0680 ca         1 83K      -0.108000
     32 C24         50.6660     8.9750    46.1980 ca         1 83K      -0.109500
     33 C23         49.5690     8.1310    46.0750 ca         1 83K      -0.115000
     34 C22         49.1820     7.6920    44.8160 ca         1 83K      -0.109500
     35 C21         49.8850     8.0980    43.6890 ca         1 83K      -0.108000
     36 C16         51.4700    12.7710    40.5080 c3         1 83K      -0.077400
     37 C15         51.7260    13.9640    41.4290 c3         1 83K      -0.149400
     38 C14         50.7420    14.0910    42.5690 c          1 83K       0.622100
     39 O2          49.6320    13.6050    42.5240 o          1 83K      -0.572100
     40 N1          53.9750    12.2210    45.9400 na         1 83K      -0.214700
     41 C2          52.0160    16.2740    45.2050 ce         1 83K      -0.430200
     42 C4          50.3550    14.6260    44.9410 c5         1 83K       0.136900
     43 C5          50.4320    13.2220    45.5570 c3         1 83K       0.000800
     44 C6          51.8030    12.7900    45.9680 cc         1 83K      -0.163400
     45 C8          53.5340    11.9170    47.1920 ca         1 83K      -0.058200
     46 N           51.1350    14.7610    43.7180 n          1 83K      -0.409400
     47 C3          52.1300    15.7440    43.8580 c          1 83K       0.598200
     48 O1          52.9070    16.0850    42.9920 o          1 83K      -0.527000
     49 C1          50.9980    15.6500    45.8220 c2         1 83K       0.153900
     50 O           50.5250    15.7640    47.0390 os         1 83K      -0.305100
     51 C           51.1890    16.6760    47.9080 c3         1 83K       0.141900
     52 C9          52.1680    12.2760    47.2550 ca         1 83K      -0.094800
     53 C10         51.4650    12.0550    48.4450 ca         1 83K      -0.065000
     54 C11         52.1230    11.4860    49.5170 ca         1 83K      -0.147000
     55 C12         53.4800    11.1300    49.4300 ca         1 83K      -0.101000
     56 C13         54.2030    11.3420    48.2730 ca         1 83K      -0.133000
     57 C7          52.9400    12.7250    45.2070 cd         1 83K      -0.140100
     58 H7          58.4520    12.5800    46.0740 h1         1 83K       0.080700
     59 H15         60.4360    11.9390    47.6120 hc         1 83K       0.038700
     60 H9          57.5590    10.0210    49.1660 h1         1 83K       0.036867
     61 H10         58.3590     9.2840    47.7860 h1         1 83K       0.036867
     62 H11         59.2840    10.2910    48.9120 h1         1 83K       0.036867
     63 H14         57.4030    13.3440    47.8340 h1         1 83K       0.036867
     64 H12         57.1080    12.3230    49.2390 h1         1 83K       0.036867
     65 H13         58.7510    12.8570    48.8770 h1         1 83K       0.036867
     66 H18         62.0140    10.3320    46.7580 hc         1 83K       0.039867
     67 H16         60.5190     9.4660    47.0680 hc         1 83K       0.039867
     68 H17         60.9650     9.8870    45.4180 hc         1 83K       0.039867
     69 H20         61.9980    12.7050    45.8910 hc         1 83K       0.039867
     70 H21         60.8300    12.3480    44.6210 hc         1 83K       0.039867
     71 H19         60.4920    13.6120    45.8030 hc         1 83K       0.039867
     72 H22         56.6290    10.2630    46.3160 hn         1 83K       0.343500
     73 H23         57.0590     8.6440    43.9280 h1         1 83K       0.078700
     74 H24         54.5220     9.4690    45.4070 hc         1 83K       0.058200
     75 H25         54.5730     8.3050    44.0990 hc         1 83K       0.058200
     76 H26         56.0330     7.9750    46.7590 hc         1 83K       0.047700
     77 H27         56.3100     5.6080    46.0200 hc         1 83K       0.037200
     78 H28         55.6180     6.0170    44.4510 hc         1 83K       0.037200
     79 H29         57.1650     6.7040    44.9480 hc         1 83K       0.037200
     80 H30         53.5650     7.9180    47.0220 hc         1 83K       0.037200
     81 H31         53.4490     6.6960    45.7570 hc         1 83K       0.037200
     82 H32         54.2670     6.3190    47.2730 hc         1 83K       0.037200
     83 H3          56.3210     9.0110    41.8810 hn         1 83K       0.327500
     84 H33         55.8980    11.8360    41.2140 h1         1 83K       0.087700
     85 H34         56.4480    11.1320    38.9150 hc         1 83K       0.060200
     86 H35         56.5480     9.4590    39.4210 hc         1 83K       0.060200
     87 H36         58.4680     9.9880    40.8910 hc         1 83K       0.053700
     88 H37         60.0980    10.4290    39.0770 hc         1 83K       0.034867
     89 H38         58.8420     9.3270    38.5150 hc         1 83K       0.034867
     90 H39         58.8040    11.0240    38.0370 hc         1 83K       0.034867
     91 H40         58.0310    12.3290    41.5270 hc         1 83K       0.034867
     92 H41         59.5750    12.2380    40.6990 hc         1 83K       0.034867
     93 H42         58.1570    12.8410    39.8430 hc         1 83K       0.034867
     94 H43         53.8210    12.0220    41.8550 hn         1 83K       0.322500
     95 H44         51.7880    10.7050    40.1650 h1         1 83K       0.081700
     96 H45         51.5510    11.5100    43.0920 hc         1 83K       0.056700
     97 H46         50.2360    10.9190    42.0960 hc         1 83K       0.056700
     98 H47         51.5010     8.7820    41.7280 hc         1 83K       0.048200
     99 H48         52.7960     9.3810    42.7510 hc         1 83K       0.048200
    100 H49         52.2190    10.0320    45.1750 ha         1 83K       0.112000
    101 H50         50.9810     9.3240    47.1730 ha         1 83K       0.114000
    102 H51         49.0220     7.8170    46.9550 ha         1 83K       0.110000
    103 H52         48.3310     7.0320    44.7100 ha         1 83K       0.114000
    104 H53         49.5740     7.7520    42.7090 ha         1 83K       0.112000
    105 H54         50.4040    12.6800    40.2950 hc         1 83K       0.062700
    106 H55         51.9530    12.9890    39.5530 hc         1 83K       0.062700
    107 H56         52.7490    13.9610    41.8030 hc         1 83K       0.078700
    108 H57         51.6500    14.8840    40.8420 hc         1 83K       0.078700
    109 H2          52.6670    17.0450    45.5850 ha         1 83K       0.224000
    110 H4          49.3070    14.8840    44.7600 h1         1 83K       0.097700
    111 H5          49.7730    13.2160    46.4280 hc         1 83K       0.068700
    112 H6          49.9890    12.5110    44.8570 hc         1 83K       0.068700
    113 H58         50.6760    16.6230    48.8640 h1         1 83K       0.052367
    114 H59         52.2350    16.3940    48.0390 h1         1 83K       0.052367
    115 H60         51.1340    17.6950    47.5210 h1         1 83K       0.052367
    116 H61         50.4160    12.3170    48.5270 ha         1 83K       0.114000
    117 H62         51.5890    11.3070    50.4420 ha         1 83K       0.109000
    118 H63         53.9680    10.6820    50.2860 ha         1 83K       0.106000
    119 H64         55.2500    11.0700    48.2040 ha         1 83K       0.119000
    120 H65         53.1060    12.9820    44.1740 h4         1 83K       0.218000
    121 H1          54.8800    12.0140    45.5420 hn         1 83K       0.378000
@<TRIPOS>BOND
     1     1     2 1   
     2     1     6 1   
     3     1     7 1   
     4     2     3 1   
     5     2     5 1   
     6     2    58 1   
     7     3     4 2   
     8     3    10 1   
     9     5     8 1   
    10     5     9 1   
    11     5    59 1   
    12     6    60 1   
    13     6    61 1   
    14     6    62 1   
    15     7    63 1   
    16     7    64 1   
    17     7    65 1   
    18     8    66 1   
    19     8    67 1   
    20     8    68 1   
    21     9    69 1   
    22     9    70 1   
    23     9    71 1   
    24    10    11 1   
    25    10    72 1   
    26    11    12 1   
    27    11    14 1   
    28    11    73 1   
    29    12    13 2   
    30    12    18 1   
    31    14    15 1   
    32    14    74 1   
    33    14    75 1   
    34    15    16 1   
    35    15    17 1   
    36    15    76 1   
    37    16    77 1   
    38    16    78 1   
    39    16    79 1   
    40    17    80 1   
    41    17    81 1   
    42    17    82 1   
    43    18    19 1   
    44    18    83 1   
    45    19    20 1   
    46    19    22 1   
    47    19    84 1   
    48    20    21 2   
    49    20    26 1   
    50    22    23 1   
    51    22    85 1   
    52    22    86 1   
    53    23    24 1   
    54    23    25 1   
    55    23    87 1   
    56    24    88 1   
    57    24    89 1   
    58    24    90 1   
    59    25    91 1   
    60    25    92 1   
    61    25    93 1   
    62    26    27 1   
    63    26    94 1   
    64    27    28 1   
    65    27    36 1   
    66    27    95 1   
    67    28    29 1   
    68    28    96 1   
    69    28    97 1   
    70    29    30 1   
    71    29    98 1   
    72    29    99 1   
    73    30    31 ar  
    74    30    35 ar  
    75    31    32 ar  
    76    31   100 1   
    77    32    33 ar  
    78    32   101 1   
    79    33    34 ar  
    80    33   102 1   
    81    34    35 ar  
    82    34   103 1   
    83    35   104 1   
    84    36    37 1   
    85    36   105 1   
    86    36   106 1   
    87    37    38 1   
    88    37   107 1   
    89    37   108 1   
    90    38    39 2   
    91    38    46 1   
    92    40    45 1   
    93    40    57 1   
    94    40   121 1   
    95    41    47 1   
    96    41    49 2   
    97    41   109 1   
    98    42    43 1   
    99    42    46 1   
   100    42    49 1   
   101    42   110 1   
   102    43    44 1   
   103    43   111 1   
   104    43   112 1   
   105    44    52 1   
   106    44    57 2   
   107    45    52 ar  
   108    45    56 ar  
   109    46    47 1   
   110    47    48 2   
   111    49    50 1   
   112    50    51 1   
   113    51   113 1   
   114    51   114 1   
   115    51   115 1   
   116    52    53 ar  
   117    53    54 ar  
   118    53   116 1   
   119    54    55 ar  
   120    54   117 1   
   121    55    56 ar  
   122    55   118 1   
   123    56   119 1   
   124    57   120 1   
@<TRIPOS>SUBSTRUCTURE
     1 83K         1 TEMP              0 ****  ****    0 ROOT
