@<TRIPOS>MOLECULE
83M
  100   101     1     0     0
SMALL
No Charge or Current Charge


@<TRIPOS>ATOM
      1 C8           7.6000    -1.5720     1.5820 c3         1 83M      -0.074400
      2 C9           9.0810    -1.4690     2.0070 c3         1 83M      -0.074400
      3 C16         -2.5100     4.7900    -4.3690 c          1 83M       0.718000
      4 C6           5.7370    -0.6710     0.0480 c3         1 83M      -0.074400
      5 C5           5.3550     0.3350    -1.0590 c3         1 83M      -0.075400
      6 N23         -0.6360     3.2160    -3.8680 ns         1 83M      -0.464900
      7 C1           1.5900     2.2030    -4.0420 c3         1 83M      -0.163400
      8 C2           1.9800     1.2090    -2.9240 c3         1 83M      -0.061400
      9 C3           3.4820     1.2550    -2.5700 c3         1 83M      -0.077400
     10 C4           3.8730     0.2350    -1.4790 c3         1 83M      -0.074400
     11 C7           7.2190    -0.5680     0.4730 c3         1 83M      -0.075400
     12 C13         12.8030    -3.2730     5.0760 c3         1 83M      -0.088100
     13 C12         11.3260    -3.3750     4.6520 c3         1 83M      -0.075400
     14 C11         10.9440    -2.3710     3.5420 c3         1 83M      -0.076400
     15 C10          9.4630    -2.4740     3.1170 c3         1 83M      -0.074400
     16 C14          0.0870     2.1390    -4.3330 c          1 83M       0.603100
     17 C15         -2.1130     3.3500    -3.9150 c3         1 83M      -0.045300
     18 C17         -1.9390     1.0260     1.5880 c3         1 83M       0.083400
     19 C18         -0.5190     1.2930     2.1550 c3         1 83M      -0.038100
     20 C19         -2.7480     2.9880    -2.5480 c3         1 83M      -0.061400
     21 C20         -2.6520     1.4870    -2.1690 c3         1 83M      -0.154400
     22 C21         -2.9900     1.2800    -0.6920 c          1 83M       0.595100
     23 C22         -2.5820    -0.2260     2.2120 c2         1 83M       0.621200
     24 C23          0.2830     2.3650     1.4060 ca         1 83M      -0.116300
     25 C24         -0.3220     3.5610     0.9610 ca         1 83M      -0.067500
     26 C25          0.4280     4.5130     0.2490 ca         1 83M      -0.173000
     27 C26          1.7880     4.2900    -0.0080 ca         1 83M       0.136100
     28 C27          2.4040     3.1170     0.4510 ca         1 83M      -0.173000
     29 C28          1.6550     2.1570     1.1540 ca         1 83M      -0.067500
     30 C29         -2.9470    -3.8000     0.8110 c          1 83M       0.584100
     31 C32         -3.8580    -1.4310     3.8750 c6         1 83M       0.122800
     32 C33         -4.1050    -2.5280     2.8180 c6         1 83M      -0.125400
     33 C34         -2.8180    -2.7600     1.9920 c6         1 83M       0.148500
     34 C35         -4.4610    -5.4250    -0.4110 c3         1 83M       0.017000
     35 C36         -5.9120    -5.9520    -0.3190 c          1 83M       0.594100
     36 N24         -1.9060     1.0100     0.1070 ns         1 83M      -0.536900
     37 N30         -3.2520    -0.2040     3.3140 n2         1 83M      -0.668900
     38 N31         -2.3540    -1.4200     1.5410 nu         1 83M      -0.914400
     39 N40         -6.2740    -6.8630    -1.2480 nt         1 83M      -0.602000
     40 O15         -0.4250     1.2130    -4.9480 o          1 83M      -0.620100
     41 O18         -3.1490     4.9120    -5.4050 o          1 83M      -0.722500
     42 O22         -4.1270     1.3490    -0.2520 o          1 83M      -0.588100
     43 O29          2.5060     5.2210    -0.6970 oh         1 83M      -0.536100
     44 O30         -2.0100    -4.0360     0.0560 o          1 83M      -0.588100
     45 O39         -6.7150    -5.5910     0.5290 o          1 83M      -0.623100
     46 H1           7.3960    -2.5920     1.2310 hc         1 83M       0.037200
     47 H2           6.9610    -1.4020     2.4580 hc         1 83M       0.037200
     48 H3           9.7200    -1.6400     1.1320 hc         1 83M       0.036200
     49 H4           9.2850    -0.4500     2.3590 hc         1 83M       0.036200
     50 H5           5.0990    -0.5010     0.9240 hc         1 83M       0.036700
     51 H6           5.5330    -1.6890    -0.3040 hc         1 83M       0.036700
     52 H7           5.5610     1.3530    -0.7060 hc         1 83M       0.034200
     53 H8           5.9910     0.1650    -1.9370 hc         1 83M       0.034200
     54 H9          -0.1090     3.9450    -3.4010 hn         1 83M       0.286500
     55 H10          1.8680     3.2140    -3.7200 hc         1 83M       0.046700
     56 H11          2.1400     1.9380    -4.9530 hc         1 83M       0.046700
     57 H12          1.3920     1.4300    -2.0240 hc         1 83M       0.050700
     58 H13          1.7140     0.1910    -3.2370 hc         1 83M       0.050700
     59 H14          4.0740     1.0590    -3.4730 hc         1 83M       0.030700
     60 H15          3.7390     2.2660    -2.2310 hc         1 83M       0.030700
     61 H16          3.6690    -0.7790    -1.8450 hc         1 83M       0.038200
     62 H17          3.2400     0.3870    -0.5970 hc         1 83M       0.038200
     63 H18          7.4220     0.4510     0.8250 hc         1 83M       0.035700
     64 H19          7.8570    -0.7390    -0.4030 hc         1 83M       0.035700
     65 H20         13.0260    -4.0030     5.8630 hc         1 83M       0.029700
     66 H21         13.4660    -3.4720     4.2250 hc         1 83M       0.029700
     67 H22         13.0270    -2.2710     5.4630 hc         1 83M       0.029700
     68 H23         11.1250    -4.3960     4.3030 hc         1 83M       0.036200
     69 H24         10.6900    -3.2060     5.5300 hc         1 83M       0.036200
     70 H25         11.1480    -1.3510     3.8940 hc         1 83M       0.036700
     71 H26         11.5830    -2.5420     2.6670 hc         1 83M       0.036700
     72 H27          8.8240    -2.3030     3.9920 hc         1 83M       0.036700
     73 H28          9.2590    -3.4930     2.7650 hc         1 83M       0.036700
     74 H29         -2.5090     2.6620    -4.6730 h1         1 83M       0.061700
     75 H30         -2.5660     1.8770     1.8820 h1         1 83M       0.091700
     76 H31         -0.6090     1.5680     3.2130 hc         1 83M       0.058700
     77 H32          0.0340     0.3460     2.1370 hc         1 83M       0.058700
     78 H33         -2.2660     3.5920    -1.7670 hc         1 83M       0.064200
     79 H34         -3.8060     3.2790    -2.5550 hc         1 83M       0.064200
     80 H35         -3.3610     0.9230    -2.7870 hc         1 83M       0.055200
     81 H36         -1.6340     1.1310    -2.3580 hc         1 83M       0.055200
     82 H37         -1.3740     3.7540     1.1560 ha         1 83M       0.115000
     83 H38         -0.0470     5.4260    -0.1010 ha         1 83M       0.119000
     84 H39          3.4600     2.9390     0.2650 ha         1 83M       0.119000
     85 H40          2.1420     1.2490     1.5010 ha         1 83M       0.115000
     86 H41         -4.8170    -1.1680     4.3450 h1         1 83M       0.046700
     87 H42         -3.1980    -1.8170     4.6670 h1         1 83M       0.046700
     88 H43         -4.4260    -3.4550     3.3110 hc         1 83M       0.064200
     89 H44         -4.9240    -2.2090     2.1580 hc         1 83M       0.064200
     90 H45         -2.0680    -3.1900     2.6730 h1         1 83M       0.058700
     91 H46         -3.7770    -6.2780    -0.3200 h1         1 83M       0.073700
     92 H47         -4.3220    -4.9660    -1.3980 h1         1 83M       0.073700
     93 H48         -1.0000     1.0050    -0.3470 hn         1 83M       0.316500
     94 H49         -1.8840    -1.3290     0.6420 hn         1 83M       0.502000
     95 H50         -4.9060    -4.1880     1.2940 hn         1 83M       0.339500
     96 H51         -5.6150    -7.1650    -1.9510 hn         1 83M       0.319500
     97 H52         -7.2110    -7.2380    -1.2310 hn         1 83M       0.319500
     98 H54          3.4350     4.9120    -0.7580 ho         1 83M       0.462000
     99 N32         -4.1640    -4.4320     0.6460 ns         1 83M      -0.499900
    100 O17         -2.1210     5.7410    -3.7040 o          1 83M      -0.722500
@<TRIPOS>BOND
     1     1     2 1   
     2     1    11 1   
     3     1    46 1   
     4     1    47 1   
     5     2    15 1   
     6     2    48 1   
     7     2    49 1   
     8     3    17 1   
     9     3    41 1   
    10     3   100 1   
    11     4     5 1   
    12     4    11 1   
    13     4    50 1   
    14     4    51 1   
    15     5    10 1   
    16     5    52 1   
    17     5    53 1   
    18     6    16 1   
    19     6    17 1   
    20     6    54 1   
    21     7     8 1   
    22     7    16 1   
    23     7    55 1   
    24     7    56 1   
    25     8     9 1   
    26     8    57 1   
    27     8    58 1   
    28     9    10 1   
    29     9    59 1   
    30     9    60 1   
    31    10    61 1   
    32    10    62 1   
    33    11    63 1   
    34    11    64 1   
    35    12    13 1   
    36    12    65 1   
    37    12    66 1   
    38    12    67 1   
    39    13    14 1   
    40    13    68 1   
    41    13    69 1   
    42    14    15 1   
    43    14    70 1   
    44    14    71 1   
    45    15    72 1   
    46    15    73 1   
    47    16    40 2   
    48    17    20 1   
    49    17    74 1   
    50    18    19 1   
    51    18    23 1   
    52    18    36 1   
    53    18    75 1   
    54    19    24 1   
    55    19    76 1   
    56    19    77 1   
    57    20    21 1   
    58    20    78 1   
    59    20    79 1   
    60    21    22 1   
    61    21    80 1   
    62    21    81 1   
    63    22    36 1   
    64    22    42 2   
    65    23    37 2   
    66    23    38 1   
    67    24    25 ar  
    68    24    29 ar  
    69    25    26 ar  
    70    25    82 1   
    71    26    27 ar  
    72    26    83 1   
    73    27    28 ar  
    74    27    43 1   
    75    28    29 ar  
    76    28    84 1   
    77    29    85 1   
    78    30    33 1   
    79    30    44 2   
    80    30    99 1   
    81    31    32 1   
    82    31    37 1   
    83    31    86 1   
    84    31    87 1   
    85    32    33 1   
    86    32    88 1   
    87    32    89 1   
    88    33    38 1   
    89    33    90 1   
    90    34    35 1   
    91    34    91 1   
    92    34    92 1   
    93    34    99 1   
    94    35    39 1   
    95    35    45 2   
    96    36    93 1   
    97    38    94 1   
    98    39    96 1   
    99    39    97 1   
   100    43    98 1   
   101    95    99 1   
@<TRIPOS>SUBSTRUCTURE
     1 83M         1 TEMP              0 ****  ****    0 ROOT
