@<TRIPOS>MOLECULE
83M
  100   101     1     0     0
SMALL
bcc


@<TRIPOS>ATOM
      1 C8          10.8520    -1.4820     0.4650 c3         1 83M      -0.074400
      2 C9          11.9780    -0.8060     1.2380 c3         1 83M      -0.074400
      3 C16         -1.1150     0.1660    -4.8830 c          1 83M       0.928600
      4 C6           8.4960    -1.2530    -0.4820 c3         1 83M      -0.074400
      5 C5           7.2880    -0.3420    -0.6620 c3         1 83M      -0.075400
      6 N23          0.1990     0.2900    -2.7590 ns         1 83M      -0.531900
      7 C1           2.5820     0.2160    -2.4340 c3         1 83M      -0.163400
      8 C2           3.7410    -0.7490    -2.2420 c3         1 83M      -0.061400
      9 C3           4.9350    -0.0760    -1.5760 c3         1 83M      -0.077400
     10 C4           6.1280    -1.0050    -1.3950 c3         1 83M      -0.074400
     11 C7           9.6350    -0.5850     0.2790 c3         1 83M      -0.075400
     12 C13         16.6570    -1.1960     3.1730 c3         1 83M      -0.088100
     13 C12         15.5490    -1.8930     2.3950 c3         1 83M      -0.075400
     14 C11         14.3200    -1.0130     2.2050 c3         1 83M      -0.076400
     15 C10         13.2010    -1.6940     1.4280 c3         1 83M      -0.074400
     16 C14          1.3130    -0.4360    -2.9470 c          1 83M       0.670100
     17 C15         -1.0720    -0.0600    -3.3480 c3         1 83M      -0.045300
     18 C17         -4.2630     1.8350     1.7230 c3         1 83M       0.083400
     19 C18         -3.7930     1.7990     3.1830 c3         1 83M      -0.038100
     20 C19         -2.1900     0.7210    -2.6590 c3         1 83M      -0.061400
     21 C20         -2.2900     0.4120    -1.1740 c3         1 83M      -0.154400
     22 C21         -3.3830     1.1840    -0.4690 c          1 83M       0.662100
     23 C22         -5.6120     1.1520     1.5920 c2         1 83M       0.621200
     24 C23         -2.5030     2.5420     3.3920 ca         1 83M      -0.116300
     25 C24         -2.4570     3.9340     3.3060 ca         1 83M      -0.085500
     26 C25         -1.2720     4.6300     3.4670 ca         1 83M      -0.191000
     27 C26         -0.0870     3.9400     3.7220 ca         1 83M       0.136100
     28 C27         -0.1140     2.5530     3.8140 ca         1 83M      -0.191000
     29 C28         -1.3130     1.8710     3.6490 ca         1 83M      -0.085500
     30 C29         -6.3320    -1.9880     0.0360 c          1 83M       0.651100
     31 C32         -7.9200     1.1540     1.5710 c6         1 83M       0.122800
     32 C33         -7.8300    -0.0380     0.6250 c6         1 83M      -0.125400
     33 C34         -6.7240    -0.9750     1.1100 c6         1 83M       0.148500
     34 C35         -7.1500    -3.8480    -1.3080 c3         1 83M       0.017000
     35 C36         -8.4480    -4.6280    -1.4480 c          1 83M       0.661100
     36 N24         -3.2650     1.2230     0.8760 ns         1 83M      -0.603900
     37 N30         -6.6650     1.8660     1.6790 n2         1 83M      -0.668900
     38 N31         -5.5660    -0.2010     1.4820 nu         1 83M      -0.859200
     39 N40         -8.4100    -5.6000    -2.3620 nt         1 83M      -0.669000
     40 O15          1.3040    -1.5450    -3.4650 o          1 83M      -0.620100
     41 O18         -2.1260    -0.2970    -5.4490 o          1 83M      -0.827800
     42 O22         -4.3190     1.7110    -1.0480 o          1 83M      -0.588100
     43 O29          1.0420     4.6620     3.8730 oh         1 83M      -0.497100
     44 O30         -5.2150    -2.0220    -0.4580 o          1 83M      -0.588100
     45 O39         -9.4300    -4.3690    -0.7670 o          1 83M      -0.623100
     46 H1          11.2230    -1.7990    -0.5160 hc         1 83M       0.037200
     47 H2          10.5530    -2.3980     0.9860 hc         1 83M       0.037200
     48 H3          12.2730     0.1120     0.7180 hc         1 83M       0.036200
     49 H4          11.6040    -0.4900     2.2180 hc         1 83M       0.036200
     50 H5           8.1910    -2.1630     0.0480 hc         1 83M       0.036700
     51 H6           8.8560    -1.5800    -1.4630 hc         1 83M       0.036700
     52 H7           6.9430    -0.0010     0.3200 hc         1 83M       0.034200
     53 H8           7.5920     0.5600    -1.2050 hc         1 83M       0.034200
     54 H9           0.3190     1.2460    -2.4590 hn         1 83M       0.286500
     55 H10          2.3630     0.7310    -1.4940 hc         1 83M       0.046700
     56 H11          2.8650     1.0040    -3.1400 hc         1 83M       0.046700
     57 H12          3.4210    -1.5980    -1.6310 hc         1 83M       0.050700
     58 H13          4.0450    -1.1640    -3.2070 hc         1 83M       0.050700
     59 H14          5.2420     0.7970    -2.1620 hc         1 83M       0.030700
     60 H15          4.6280     0.3110    -0.5980 hc         1 83M       0.030700
     61 H16          6.4690    -1.3570    -2.3760 hc         1 83M       0.038200
     62 H17          5.8160    -1.8990    -0.8440 hc         1 83M       0.038200
     63 H18          9.2710    -0.2610     1.2610 hc         1 83M       0.035700
     64 H19          9.9340     0.3290    -0.2470 hc         1 83M       0.035700
     65 H20         17.5340    -1.8340     3.2880 hc         1 83M       0.029700
     66 H21         16.9760    -0.2830     2.6660 hc         1 83M       0.029700
     67 H22         16.3200    -0.9150     4.1720 hc         1 83M       0.029700
     68 H23         15.9270    -2.2030     1.4160 hc         1 83M       0.036200
     69 H24         15.2590    -2.8120     2.9130 hc         1 83M       0.036200
     70 H25         13.9430    -0.7010     3.1860 hc         1 83M       0.036700
     71 H26         14.6110    -0.0910     1.6880 hc         1 83M       0.036700
     72 H27         12.9070    -2.6140     1.9470 hc         1 83M       0.036700
     73 H28         13.5780    -2.0080     0.4480 hc         1 83M       0.036700
     74 H29         -1.2420    -1.1260    -3.1680 h1         1 83M       0.061700
     75 H30         -4.4160     2.8770     1.4320 h1         1 83M       0.091700
     76 H31         -4.5880     2.2340     3.7920 hc         1 83M       0.058700
     77 H32         -3.6830     0.7600     3.5070 hc         1 83M       0.058700
     78 H33         -2.0320     1.7940    -2.8110 hc         1 83M       0.064200
     79 H34         -3.1270     0.4720    -3.1540 hc         1 83M       0.064200
     80 H35         -2.5040    -0.6530    -1.0310 hc         1 83M       0.055200
     81 H36         -1.3370     0.5940    -0.6700 hc         1 83M       0.055200
     82 H37         -3.3660     4.4910     3.1090 ha         1 83M       0.133000
     83 H38         -1.2600     5.7110     3.3990 ha         1 83M       0.137000
     84 H39          0.7950     1.9990     4.0180 ha         1 83M       0.137000
     85 H40         -1.3140     0.7900     3.7310 ha         1 83M       0.133000
     86 H41         -8.6870     1.8450     1.2160 h1         1 83M       0.046700
     87 H42         -8.2520     0.8110     2.5590 h1         1 83M       0.046700
     88 H43         -8.7830    -0.5660     0.5820 hc         1 83M       0.064200
     89 H44         -7.6030     0.3180    -0.3830 hc         1 83M       0.064200
     90 H45         -7.0980    -1.5350     1.9760 h1         1 83M       0.058700
     91 H46         -6.3450    -4.5420    -1.0480 h1         1 83M       0.073700
     92 H47         -6.8890    -3.4140    -2.2780 h1         1 83M       0.073700
     93 H48         -2.4470     0.8190     1.3040 hn         1 83M       0.316500
     94 H49         -4.6770    -0.6020     1.2220 hn         1 83M       0.446800
     95 H50         -8.2110    -2.7860     0.1470 hn         1 83M       0.339500
     96 H51         -7.5880    -5.7850    -2.9110 hn         1 83M       0.319500
     97 H52         -9.2220    -6.1700    -2.5340 hn         1 83M       0.319500
     98 H54          1.7930     4.0790     4.0290 ho         1 83M       0.423000
     99 N32         -7.3110    -2.8310    -0.3080 ns         1 83M      -0.566900
    100 O17         -0.1730     0.7830    -5.4060 o          1 83M      -0.827800
@<TRIPOS>BOND
     1     1     2 1   
     2     1    11 1   
     3     1    46 1   
     4     1    47 1   
     5     2    15 1   
     6     2    48 1   
     7     2    49 1   
     8     3    17 1   
     9     3    41 1   
    10     3   100 1   
    11     4     5 1   
    12     4    11 1   
    13     4    50 1   
    14     4    51 1   
    15     5    10 1   
    16     5    52 1   
    17     5    53 1   
    18     6    16 1   
    19     6    17 1   
    20     6    54 1   
    21     7     8 1   
    22     7    16 1   
    23     7    55 1   
    24     7    56 1   
    25     8     9 1   
    26     8    57 1   
    27     8    58 1   
    28     9    10 1   
    29     9    59 1   
    30     9    60 1   
    31    10    61 1   
    32    10    62 1   
    33    11    63 1   
    34    11    64 1   
    35    12    13 1   
    36    12    65 1   
    37    12    66 1   
    38    12    67 1   
    39    13    14 1   
    40    13    68 1   
    41    13    69 1   
    42    14    15 1   
    43    14    70 1   
    44    14    71 1   
    45    15    72 1   
    46    15    73 1   
    47    16    40 2   
    48    17    20 1   
    49    17    74 1   
    50    18    19 1   
    51    18    23 1   
    52    18    36 1   
    53    18    75 1   
    54    19    24 1   
    55    19    76 1   
    56    19    77 1   
    57    20    21 1   
    58    20    78 1   
    59    20    79 1   
    60    21    22 1   
    61    21    80 1   
    62    21    81 1   
    63    22    36 1   
    64    22    42 2   
    65    23    37 2   
    66    23    38 1   
    67    24    25 ar  
    68    24    29 ar  
    69    25    26 ar  
    70    25    82 1   
    71    26    27 ar  
    72    26    83 1   
    73    27    28 ar  
    74    27    43 1   
    75    28    29 ar  
    76    28    84 1   
    77    29    85 1   
    78    30    33 1   
    79    30    44 2   
    80    30    99 1   
    81    31    32 1   
    82    31    37 1   
    83    31    86 1   
    84    31    87 1   
    85    32    33 1   
    86    32    88 1   
    87    32    89 1   
    88    33    38 1   
    89    33    90 1   
    90    34    35 1   
    91    34    91 1   
    92    34    92 1   
    93    34    99 1   
    94    35    39 1   
    95    35    45 2   
    96    36    93 1   
    97    38    94 1   
    98    39    96 1   
    99    39    97 1   
   100    43    98 1   
   101    95    99 1   
@<TRIPOS>SUBSTRUCTURE
     1 83M         1 TEMP              0 ****  ****    0 ROOT
