@<TRIPOS>MOLECULE
83N
   74    75     1     0     0
SMALL
abcg2


@<TRIPOS>ATOM
      1 C1          26.0860     4.0240   -30.9330 c3         1 83N       0.145900
      2 C10         17.9400     7.8000   -25.8860 c5         1 83N       0.100000
      3 C11         17.0240     5.6510   -26.1160 c          1 83N       0.566000
      4 C12         21.0270     2.7610   -24.9210 c3         1 83N       0.150600
      5 C13         23.1390     6.1890   -30.5590 c5         1 83N       0.106000
      6 C15         20.5120     7.6110   -30.8460 c3         1 83N       0.062700
      7 C17         19.0960     7.2090   -35.5030 c3         1 83N       0.225000
      8 C18         19.2870     8.6590   -35.9310 c3         1 83N      -0.108767
      9 C19         17.7250     6.7170   -35.9520 c3         1 83N      -0.108767
     10 C2          23.9390     4.8910   -30.5520 c5         1 83N       0.153300
     11 C20         20.1780     6.2990   -36.0710 c3         1 83N      -0.108767
     12 C21         19.9400     8.7310   -29.9610 c3         1 83N      -0.071700
     13 C22         20.8880     9.0330   -28.8050 c3         1 83N      -0.093600
     14 C23         19.6810     9.9870   -30.7840 c3         1 83N      -0.093600
     15 C3          23.5590     4.2660   -29.2080 c5         1 83N      -0.124400
     16 C4          22.0730     4.6070   -29.0670 c5         1 83N       0.031700
     17 C5          21.7150     4.9080   -27.6130 c          1 83N       0.605100
     18 C6          20.5440     4.0280   -25.6200 c3         1 83N       0.105700
     19 C7          19.0290     4.2070   -25.5210 c3         1 83N      -0.068400
     20 C8          18.5360     5.4940   -26.1600 c5         1 83N      -0.160700
     21 C9          19.0330     6.7940   -25.5270 c5         1 83N      -0.092400
     22 N1          20.9760     3.9720   -27.0030 ns         1 83N      -0.496900
     23 N2          16.7630     6.9590   -25.9410 ns         1 83N      -0.516900
     24 N3          21.9090     5.7980   -29.8920 n          1 83N      -0.392800
     25 N4          19.6520     7.2990   -31.9620 ns         1 83N      -0.503900
     26 O1          25.2960     5.1700   -30.7200 os         1 83N      -0.439000
     27 O2          22.1420     5.9160   -27.0710 o          1 83N      -0.603100
     28 O6          21.1280     7.8130   -33.6100 o          1 83N      -0.557000
     29 O7          19.0220     7.1030   -34.0560 os         1 83N      -0.476100
     30 H1          27.1060     4.3560   -31.1190 h1         1 83N       0.032700
     31 H2          26.0950     3.3550   -30.0670 h1         1 83N       0.032700
     32 H3          25.7430     3.4510   -31.8030 h1         1 83N       0.032700
     33 H16         18.1360     8.2740   -26.8530 h1         1 83N       0.042200
     34 H15         17.8260     8.5880   -25.1420 h1         1 83N       0.042200
     35 H21         23.6710     6.9670   -30.0030 h1         1 83N       0.075200
     36 H22         22.9550     6.5460   -31.5710 h1         1 83N       0.075200
     37 H23         21.4600     7.9620   -31.2530 h1         1 83N       0.092700
     38 H25         20.2740     9.0410   -35.6810 hc         1 83N       0.049811
     39 H26         19.1670     8.7310   -37.0120 hc         1 83N       0.049811
     40 H27         18.5350     9.3030   -35.4730 hc         1 83N       0.049811
     41 H30         16.9270     7.3350   -35.5400 hc         1 83N       0.049811
     42 H28         17.6570     6.7620   -37.0390 hc         1 83N       0.049811
     43 H29         17.5550     5.6840   -35.6470 hc         1 83N       0.049811
     44 H4          23.5740     4.2470   -31.3660 h1         1 83N       0.043700
     45 H31         21.1810     6.6500   -35.8420 hc         1 83N       0.049811
     46 H32         20.0690     5.2810   -35.6940 hc         1 83N       0.049811
     47 H33         20.0770     6.2620   -37.1560 hc         1 83N       0.049811
     48 H34         18.9870     8.3840   -29.5470 hc         1 83N       0.062700
     49 H35         20.4860     9.8360   -28.1860 hc         1 83N       0.040867
     50 H36         21.0490     8.1720   -28.1540 hc         1 83N       0.040867
     51 H37         21.8640     9.3560   -29.1750 hc         1 83N       0.040867
     52 H39         19.2870    10.7810   -30.1490 hc         1 83N       0.040867
     53 H40         20.6020    10.3540   -31.2420 hc         1 83N       0.040867
     54 H38         18.9550     9.8150   -31.5790 hc         1 83N       0.040867
     55 H6          23.7260     3.1910   -29.1570 hc         1 83N       0.070700
     56 H5          24.1470     4.7430   -28.4200 hc         1 83N       0.070700
     57 H7          21.4540     3.7960   -29.4610 h1         1 83N       0.067700
     58 H9          21.0440     4.8840   -25.1620 h1         1 83N       0.092700
     59 H11         18.7410     4.1880   -24.4680 hc         1 83N       0.065200
     60 H10         18.5390     3.3500   -25.9960 hc         1 83N       0.065200
     61 H12         18.8030     5.4950   -27.2240 hc         1 83N       0.098700
     62 H14         19.0930     6.6800   -24.4410 hc         1 83N       0.064200
     63 H13         20.0130     7.0980   -25.8870 hc         1 83N       0.064200
     64 H8          20.6150     3.2140   -27.5630 hn         1 83N       0.314500
     65 H17         15.8290     7.3320   -26.0080 hn         1 83N       0.323500
     66 H24         18.7080     7.0090   -31.7600 hn         1 83N       0.338500
     67 H18         20.5670     1.8890   -25.4080 h1         1 83N       0.021700
     68 H19         22.1110     2.6770   -25.0650 h1         1 83N       0.021700
     69 H20         20.9420     2.0110   -23.1370 ho         1 83N       0.448000
     70 C14         20.6880     6.3350   -30.0260 c          1 83N       0.598100
     71 O4          20.6860     2.8370   -23.5580 oh         1 83N      -0.655000
     72 O3          16.1960     4.7620   -26.2350 o          1 83N      -0.562000
     73 C16         20.0290     7.4400   -33.2530 c          1 83N       0.655100
     74 O5          19.7080     5.8200   -29.5000 o          1 83N      -0.622100
@<TRIPOS>BOND
     1     1    26 1   
     2     1    30 1   
     3     1    31 1   
     4     1    32 1   
     5     2    21 1   
     6     2    23 1   
     7     2    33 1   
     8     2    34 1   
     9     3    20 1   
    10     3    23 1   
    11     3    72 2   
    12     4    18 1   
    13     4    67 1   
    14     4    68 1   
    15     4    71 1   
    16     5    10 1   
    17     5    24 1   
    18     5    35 1   
    19     5    36 1   
    20     6    12 1   
    21     6    25 1   
    22     6    37 1   
    23     6    70 1   
    24     7     8 1   
    25     7     9 1   
    26     7    11 1   
    27     7    29 1   
    28     8    38 1   
    29     8    39 1   
    30     8    40 1   
    31     9    41 1   
    32     9    42 1   
    33     9    43 1   
    34    10    15 1   
    35    10    26 1   
    36    10    44 1   
    37    11    45 1   
    38    11    46 1   
    39    11    47 1   
    40    12    13 1   
    41    12    14 1   
    42    12    48 1   
    43    13    49 1   
    44    13    50 1   
    45    13    51 1   
    46    14    52 1   
    47    14    53 1   
    48    14    54 1   
    49    15    16 1   
    50    15    55 1   
    51    15    56 1   
    52    16    17 1   
    53    16    24 1   
    54    16    57 1   
    55    17    22 1   
    56    17    27 2   
    57    18    19 1   
    58    18    22 1   
    59    18    58 1   
    60    19    20 1   
    61    19    59 1   
    62    19    60 1   
    63    20    21 1   
    64    20    61 1   
    65    21    62 1   
    66    21    63 1   
    67    22    64 1   
    68    23    65 1   
    69    24    70 1   
    70    25    66 1   
    71    25    73 1   
    72    28    73 2   
    73    29    73 1   
    74    69    71 1   
    75    70    74 2   
@<TRIPOS>SUBSTRUCTURE
     1 83N         1 TEMP              0 ****  ****    0 ROOT
