@<TRIPOS>MOLECULE
83N
   74    75     1     0     0
SMALL
No Charge or Current Charge


@<TRIPOS>ATOM
      1 C1          26.4560     3.5780   -29.6110 c3         1 83N       0.145900
      2 C10         16.7300     6.2740   -27.3910 c5         1 83N       0.100000
      3 C11         16.7060     4.0200   -26.6230 c          1 83N       0.566000
      4 C12         21.2710     3.7350   -24.1740 c3         1 83N       0.150600
      5 C13         23.4570     5.6490   -30.6310 c5         1 83N       0.106000
      6 C15         21.1610     7.5690   -31.2750 c3         1 83N       0.062700
      7 C17         18.1170     7.9810   -35.1680 c3         1 83N       0.225000
      8 C18         18.5300     9.3980   -35.6430 c3         1 83N      -0.108767
      9 C19         16.5780     7.8740   -35.1060 c3         1 83N      -0.108767
     10 C2          24.1710     4.4050   -30.0350 c5         1 83N       0.153300
     11 C20         18.6900     6.8500   -36.0620 c3         1 83N      -0.108767
     12 C21         21.4330     8.9510   -30.5880 c3         1 83N      -0.071700
     13 C22         22.7470     8.9870   -29.7700 c3         1 83N      -0.093600
     14 C23         21.4080    10.1390   -31.5860 c3         1 83N      -0.093600
     15 C3          23.7230     4.4400   -28.5530 c5         1 83N      -0.124400
     16 C4          22.2040     4.7450   -28.6990 c5         1 83N       0.031700
     17 C5          21.6680     5.2980   -27.3390 c          1 83N       0.605100
     18 C6          20.4560     4.4100   -25.3110 c3         1 83N       0.105700
     19 C7          18.9970     3.8910   -25.4190 c3         1 83N      -0.068400
     20 C8          18.1530     4.5240   -26.5640 c5         1 83N      -0.160700
     21 C9          17.9700     6.0660   -26.4810 c5         1 83N      -0.092400
     22 N1          21.1460     4.2570   -26.5990 ns         1 83N      -0.496900
     23 N2          15.9590     5.0760   -27.0680 ns         1 83N      -0.516900
     24 N3          22.2210     5.7320   -29.8140 n          1 83N      -0.392800
     25 N4          19.9200     7.6080   -32.0820 ns         1 83N      -0.503900
     26 O1          25.6010     4.6220   -30.1110 os         1 83N      -0.439000
     27 O2          21.6780     6.4610   -26.9530 o          1 83N      -0.603100
     28 O6          20.8290     7.9770   -34.1500 o          1 83N      -0.557000
     29 O7          18.5440     7.7830   -33.8000 os         1 83N      -0.476100
     30 H1          27.5090     3.8370   -29.7770 h1         1 83N       0.032700
     31 H2          26.3110     3.4300   -28.5330 h1         1 83N       0.032700
     32 H3          26.2530     2.6290   -30.1240 h1         1 83N       0.032700
     33 H16         17.0100     6.2940   -28.4530 h1         1 83N       0.042200
     34 H15         16.1950     7.2040   -27.1530 h1         1 83N       0.042200
     35 H21         24.0700     6.5520   -30.5130 h1         1 83N       0.075200
     36 H22         23.2440     5.5060   -31.6990 h1         1 83N       0.075200
     37 H23         21.9960     7.3470   -31.9490 h1         1 83N       0.092700
     38 H25         19.6080     9.4720   -35.8240 hc         1 83N       0.049811
     39 H26         18.0260     9.6480   -36.5830 hc         1 83N       0.049811
     40 H27         18.2520    10.1540   -34.8980 hc         1 83N       0.049811
     41 H30         16.1600     8.6400   -34.4420 hc         1 83N       0.049811
     42 H28         16.1360     8.0100   -36.1010 hc         1 83N       0.049811
     43 H29         16.2700     6.8910   -34.7300 hc         1 83N       0.049811
     44 H4          23.8840     3.4750   -30.5460 h1         1 83N       0.043700
     45 H31         19.7640     6.9710   -36.2390 hc         1 83N       0.049811
     46 H32         18.5220     5.8690   -35.6030 hc         1 83N       0.049811
     47 H33         18.1980     6.8530   -37.0420 hc         1 83N       0.049811
     48 H34         20.6150     9.1210   -29.8770 hc         1 83N       0.062700
     49 H35         22.8760     9.9650   -29.2920 hc         1 83N       0.040867
     50 H36         22.7460     8.2360   -28.9720 hc         1 83N       0.040867
     51 H37         23.6160     8.8120   -30.4160 hc         1 83N       0.040867
     52 H39         21.6300    11.0820   -31.0730 hc         1 83N       0.040867
     53 H40         22.1540     9.9990   -32.3780 hc         1 83N       0.040867
     54 H38         20.4230    10.2480   -32.0540 hc         1 83N       0.040867
     55 H6          23.9050     3.4940   -28.0310 hc         1 83N       0.070700
     56 H5          24.2420     5.2330   -28.0000 hc         1 83N       0.070700
     57 H7          21.6320     3.8530   -28.9890 h1         1 83N       0.067700
     58 H9          20.4050     5.4800   -25.0690 h1         1 83N       0.092700
     59 H11         18.4900     4.0650   -24.4620 hc         1 83N       0.065200
     60 H10         19.0250     2.8020   -25.5520 hc         1 83N       0.065200
     61 H12         18.6040     4.2890   -27.5350 hc         1 83N       0.098700
     62 H14         17.7570     6.3880   -25.4540 hc         1 83N       0.064200
     63 H13         18.8440     6.6270   -26.8290 hc         1 83N       0.064200
     64 H8          21.1970     3.3320   -27.0090 hn         1 83N       0.314500
     65 H17         14.9500     4.9860   -27.1010 hn         1 83N       0.323500
     66 H24         19.0340     7.4470   -31.6200 hn         1 83N       0.338500
     67 H18         21.3140     2.6530   -24.3550 h1         1 83N       0.021700
     68 H19         22.3000     4.1180   -24.2030 h1         1 83N       0.021700
     69 H20         21.2530     3.5530   -22.2200 ho         1 83N       0.448000
     70 C14         21.0480     6.3940   -30.2450 c          1 83N       0.598100
     71 O4          20.6890     4.0010   -22.8890 oh         1 83N      -0.655000
     72 O3          16.2170     3.0000   -26.1650 o          1 83N      -0.562000
     73 C16         19.8590     7.8130   -33.4290 c          1 83N       0.655100
     74 O5          19.9600     6.0680   -29.7780 o          1 83N      -0.622100
@<TRIPOS>BOND
     1     1    26 1   
     2     1    30 1   
     3     1    31 1   
     4     1    32 1   
     5     2    21 1   
     6     2    23 1   
     7     2    33 1   
     8     2    34 1   
     9     3    20 1   
    10     3    23 1   
    11     3    72 2   
    12     4    18 1   
    13     4    67 1   
    14     4    68 1   
    15     4    71 1   
    16     5    10 1   
    17     5    24 1   
    18     5    35 1   
    19     5    36 1   
    20     6    12 1   
    21     6    25 1   
    22     6    37 1   
    23     6    70 1   
    24     7     8 1   
    25     7     9 1   
    26     7    11 1   
    27     7    29 1   
    28     8    38 1   
    29     8    39 1   
    30     8    40 1   
    31     9    41 1   
    32     9    42 1   
    33     9    43 1   
    34    10    15 1   
    35    10    26 1   
    36    10    44 1   
    37    11    45 1   
    38    11    46 1   
    39    11    47 1   
    40    12    13 1   
    41    12    14 1   
    42    12    48 1   
    43    13    49 1   
    44    13    50 1   
    45    13    51 1   
    46    14    52 1   
    47    14    53 1   
    48    14    54 1   
    49    15    16 1   
    50    15    55 1   
    51    15    56 1   
    52    16    17 1   
    53    16    24 1   
    54    16    57 1   
    55    17    22 1   
    56    17    27 2   
    57    18    19 1   
    58    18    22 1   
    59    18    58 1   
    60    19    20 1   
    61    19    59 1   
    62    19    60 1   
    63    20    21 1   
    64    20    61 1   
    65    21    62 1   
    66    21    63 1   
    67    22    64 1   
    68    23    65 1   
    69    24    70 1   
    70    25    66 1   
    71    25    73 1   
    72    28    73 2   
    73    29    73 1   
    74    69    71 1   
    75    70    74 2   
@<TRIPOS>SUBSTRUCTURE
     1 83N         1 TEMP              0 ****  ****    0 ROOT
