@<TRIPOS>MOLECULE
83O
   18    18     1     0     0
SMALL
bcc


@<TRIPOS>ATOM
      1 C1           3.4690    -0.1970    -0.3150 cc         1 83O       0.338400
      2 C3           1.3180    -0.0820    -0.2400 cc         1 83O       0.411800
      3 C7          -2.5280     0.1600    -0.1520 c          1 83O       0.930600
      4 O8          -2.7310     1.2570    -0.7110 o          1 83O      -0.833300
      5 C5          -1.1210    -0.0240     0.4690 c3         1 83O       0.034500
      6 N6          -1.0740    -1.1810     1.3390 n8         1 83O      -0.874800
      7 C4          -0.1020    -0.0320    -0.6820 c3         1 83O      -0.142700
      8 N2           2.3640    -0.2200    -1.0890 na         1 83O      -0.467700
      9 N11          3.1320    -0.0590     0.9320 nd         1 83O      -0.375000
     10 N10          1.7740     0.0140     0.9790 nd         1 83O      -0.374000
     11 H1           4.4720    -0.2820    -0.7020 h5         1 83O       0.044100
     12 H3          -0.9160     0.8620     1.0800 h1         1 83O       0.061700
     13 H4          -1.4030    -1.9960     0.8370 hn         1 83O       0.328300
     14 H5          -0.1200    -1.3600     1.6230 hn         1 83O       0.328300
     15 H7          -0.2420     0.8630    -1.2960 hc         1 83O       0.059700
     16 H8          -0.2940    -0.8850    -1.3430 hc         1 83O       0.059700
     17 H9           2.3290    -0.3120    -2.0930 hn         1 83O       0.299700
     18 O9          -3.3220    -0.7950    -0.0750 o          1 83O      -0.833300
@<TRIPOS>BOND
     1     1     8 1   
     2     1     9 2   
     3     1    11 1   
     4     2     7 1   
     5     2     8 1   
     6     2    10 2   
     7     3     4 1   
     8     3     5 1   
     9     3    18 1   
    10     5     6 1   
    11     5     7 1   
    12     5    12 1   
    13     6    13 1   
    14     6    14 1   
    15     7    15 1   
    16     7    16 1   
    17     8    17 1   
    18     9    10 1   
@<TRIPOS>SUBSTRUCTURE
     1 83O         1 TEMP              0 ****  ****    0 ROOT
