@<TRIPOS>MOLECULE
83O
   18    18     1     0     0
SMALL
No Charge or Current Charge


@<TRIPOS>ATOM
      1 C1           3.4260    -0.2880    -0.1320 cc         1 83O       0.338400
      2 C3           1.3110     0.2340    -0.3800 cc         1 83O       0.411800
      3 C7          -2.6020     0.2230     0.0220 c          1 83O       0.720000
      4 O8          -3.1860     1.1200     0.6160 o          1 83O      -0.728000
      5 C5          -1.1010    -0.0950     0.4260 c3         1 83O       0.034500
      6 N6          -0.8440    -1.4650     1.0030 n8         1 83O      -0.985200
      7 C4          -0.1410     0.1670    -0.7620 c3         1 83O      -0.142700
      8 N2           2.2320    -0.7460    -0.6180 na         1 83O      -0.518000
      9 N11          3.2400     0.9190     0.3750 nd         1 83O      -0.375000
     10 N10          1.9140     1.2480     0.2160 nd         1 83O      -0.374000
     11 H1           4.3520    -0.8500    -0.1760 h5         1 83O       0.044100
     12 H3          -0.8460     0.6340     1.2090 h1         1 83O       0.061700
     13 H4          -1.1360    -2.1740     0.3190 hn         1 83O       0.383500
     14 H5           0.1660    -1.6140     1.1060 hn         1 83O       0.383500
     15 H7          -0.4170     1.1200    -1.2280 hc         1 83O       0.059700
     16 H8          -0.2910    -0.5980    -1.5340 hc         1 83O       0.059700
     17 H9           2.0660    -1.6310    -1.0730 hn         1 83O       0.350000
     18 O9          -3.1400    -0.4750    -0.8300 o          1 83O      -0.728000
@<TRIPOS>BOND
     1     1     8 1   
     2     1     9 2   
     3     1    11 1   
     4     2     7 1   
     5     2     8 1   
     6     2    10 2   
     7     3     4 1   
     8     3     5 1   
     9     3    18 1   
    10     5     6 1   
    11     5     7 1   
    12     5    12 1   
    13     6    13 1   
    14     6    14 1   
    15     7    15 1   
    16     7    16 1   
    17     8    17 1   
    18     9    10 1   
@<TRIPOS>SUBSTRUCTURE
     1 83O         1 TEMP              0 ****  ****    0 ROOT
