@<TRIPOS>MOLECULE
83P
   60    65     1     0     0
SMALL
abcg2


@<TRIPOS>ATOM
      1 C1           0.0390     4.0520    -3.0880 c3         1 83P       0.095300
      2 C3          -1.0740     2.0760    -2.2030 c          1 83P       0.606100
      3 C5          -1.4600     1.3280    -0.9270 c6         1 83P       0.018700
      4 C7          -2.9130     1.7330    -0.6290 c6         1 83P      -0.002200
      5 C8          -3.5030     0.8340     0.3920 cc         1 83P      -0.121400
      6 C11         -6.5160     1.8410     2.4620 ca         1 83P      -0.140000
      7 C12         -6.6010     0.6430     3.1890 ca         1 83P      -0.088000
      8 C16         -2.9960    -0.4030     0.6250 cd         1 83P      -0.083300
      9 C17         -1.8150    -0.9960    -0.0430 c6         1 83P       0.158200
     10 O20          0.7070     0.2170    -2.0730 o          1 83P      -0.556100
     11 C21         -0.1010    -1.9590    -2.1300 cc         1 83P       0.092500
     12 C23         -0.8000    -3.8810    -2.8620 cc         1 83P       0.141900
     13 C24          0.5340    -4.0180    -2.6680 cd         1 83P      -0.193000
     14 C30          5.0710     0.5000     0.0160 ca         1 83P      -0.036000
     15 C31          5.1630     0.5780     1.4230 ca         1 83P       0.175000
     16 C33          6.0790     1.4370     3.3060 ca         1 83P       0.269900
     17 C34          5.2340     0.6130     4.0840 ca         1 83P       0.308900
     18 C36          4.3120    -0.2520     2.1990 ca         1 83P       0.277000
     19 C37          3.4110    -1.1210     1.5710 ca         1 83P      -0.203000
     20 N2          -0.3500     3.1810    -2.0040 ns         1 83P      -0.495900
     21 O4          -1.5110     1.7450    -3.2950 o          1 83P      -0.589100
     22 C9          -4.6200     0.9950     1.2700 ca         1 83P      -0.087800
     23 C10         -5.5360     2.0250     1.5060 ca         1 83P      -0.058000
     24 C13         -5.7090    -0.3930     2.9780 ca         1 83P      -0.130000
     25 C14         -4.7220    -0.2040     2.0140 ca         1 83P      -0.036200
     26 N15         -3.7180    -1.0350     1.5990 na         1 83P      -0.220700
     27 N18         -1.3320    -0.1170    -1.1200 n          1 83P      -0.355800
     28 O22         -1.1950    -2.6400    -2.5330 os         1 83P      -0.205000
     29 C25          1.0000    -2.7580    -2.1960 cd         1 83P      -0.129300
     30 C26          2.3930    -2.3970    -1.7890 c3         1 83P       0.294100
     31 N27          2.4090    -2.0040    -0.3990 nu         1 83P      -0.966200
     32 C28          3.3230    -1.1830     0.1880 ca         1 83P       0.353000
     33 C29          4.1870    -0.3480    -0.5830 ca         1 83P      -0.151000
     34 N32          6.0430     1.4180     2.0000 nb         1 83P      -0.612000
     35 N35          4.3730    -0.2110     3.5540 nb         1 83P      -0.644000
     36 H1          -0.8320     4.4220    -3.6290 h1         1 83P       0.040700
     37 H2           0.5700     4.9030    -2.6730 h1         1 83P       0.040700
     38 H3           0.6960     3.5490    -3.8000 h1         1 83P       0.040700
     39 H4          -0.8300     1.6520    -0.0880 h1         1 83P       0.049700
     40 H5          -2.9060     2.7710    -0.2880 hc         1 83P       0.068700
     41 H6          -3.4990     1.7110    -1.5510 hc         1 83P       0.068700
     42 H7          -7.2300     2.6300     2.6580 ha         1 83P       0.112000
     43 H8          -7.3800     0.5280     3.9320 ha         1 83P       0.111000
     44 H9          -1.0220    -1.1620     0.6980 h1         1 83P       0.056200
     45 H10         -2.0800    -1.9710    -0.4490 h1         1 83P       0.056200
     46 H11         -1.5630    -4.5540    -3.2180 h4         1 83P       0.060100
     47 H12          1.1240    -4.9040    -2.8390 ha         1 83P       0.147000
     48 H14          6.7800     2.1070     3.7900 h4         1 83P       0.027100
     49 H15          5.2920     0.6540     5.1660 h4         1 83P       0.024100
     50 H16          2.7770    -1.7410     2.1930 ha         1 83P       0.127000
     51 H17          0.0500     3.3470    -1.0960 hn         1 83P       0.316500
     52 H18         -5.4780     2.9520     0.9490 ha         1 83P       0.115000
     53 H19         -5.7770    -1.3150     3.5420 ha         1 83P       0.113000
     54 H20         -3.5440    -1.9620     1.9500 hn         1 83P       0.350000
     55 H21          3.0610    -3.2440    -1.9800 h1         1 83P       0.059700
     56 H22          2.7410    -1.5740    -2.4090 h1         1 83P       0.059700
     57 H23          1.9460    -2.6480     0.2230 hn         1 83P       0.475000
     58 H24          4.1500    -0.3770    -1.6630 ha         1 83P       0.124000
     59 C19         -0.2010    -0.5350    -1.7680 c          1 83P       0.535600
     60 H13          5.7180     1.1260    -0.5840 ha         1 83P       0.132000
@<TRIPOS>BOND
     1     1    20 1   
     2     1    36 1   
     3     1    37 1   
     4     1    38 1   
     5     2     3 1   
     6     2    20 1   
     7     2    21 2   
     8     3     4 1   
     9     3    27 1   
    10     3    39 1   
    11     4     5 1   
    12     4    40 1   
    13     4    41 1   
    14     5     8 2   
    15     5    22 1   
    16     6     7 ar  
    17     6    23 ar  
    18     6    42 1   
    19     7    24 ar  
    20     7    43 1   
    21     8     9 1   
    22     8    26 1   
    23     9    27 1   
    24     9    44 1   
    25     9    45 1   
    26    10    59 2   
    27    11    28 1   
    28    11    29 2   
    29    11    59 1   
    30    12    13 2   
    31    12    28 1   
    32    12    46 1   
    33    13    29 1   
    34    13    47 1   
    35    14    15 ar  
    36    14    33 ar  
    37    14    60 1   
    38    15    18 ar  
    39    15    34 ar  
    40    16    17 ar  
    41    16    34 ar  
    42    16    48 1   
    43    17    35 ar  
    44    17    49 1   
    45    18    19 ar  
    46    18    35 ar  
    47    19    32 ar  
    48    19    50 1   
    49    20    51 1   
    50    22    23 ar  
    51    22    25 ar  
    52    23    52 1   
    53    24    25 ar  
    54    24    53 1   
    55    25    26 1   
    56    26    54 1   
    57    27    59 1   
    58    29    30 1   
    59    30    31 1   
    60    30    55 1   
    61    30    56 1   
    62    31    32 1   
    63    31    57 1   
    64    32    33 ar  
    65    33    58 1   
@<TRIPOS>SUBSTRUCTURE
     1 83P         1 TEMP              0 ****  ****    0 ROOT
