@<TRIPOS>MOLECULE
83P
   60    65     1     0     0
SMALL
No Charge or Current Charge


@<TRIPOS>ATOM
      1 C1          -2.4630     3.8860    -4.6890 c3         1 83P       0.095300
      2 C3          -1.8910     2.1150    -2.9920 c          1 83P       0.606100
      3 C5          -2.1680     1.5670    -1.5470 c6         1 83P       0.018700
      4 C7          -3.6300     1.8910    -1.0750 c6         1 83P      -0.002200
      5 C8          -3.9990     1.0790     0.1250 cc         1 83P      -0.121400
      6 C11         -6.3340     2.4230     2.7980 ca         1 83P      -0.140000
      7 C12         -6.3450     1.2500     3.5920 ca         1 83P      -0.088000
      8 C16         -3.5460    -0.2150     0.2570 cd         1 83P      -0.083300
      9 C17         -2.6470    -0.8500    -0.7720 c6         1 83P       0.158200
     10 O20          0.5420     0.7540    -1.3370 o          1 83P      -0.556100
     11 C21          0.1090    -1.5800    -1.7160 cc         1 83P       0.092500
     12 C23         -0.0790    -3.7160    -2.2970 cc         1 83P       0.141900
     13 C24          1.2480    -3.4600    -2.1130 cd         1 83P      -0.193000
     14 C30          6.1440     0.1750     0.8340 ca         1 83P      -0.036000
     15 C31          6.4120    -0.3470     2.1130 ca         1 83P       0.175000
     16 C33          7.7070    -0.4790     4.0210 ca         1 83P       0.269900
     17 C34          6.8110    -1.4290     4.5690 ca         1 83P       0.308900
     18 C36          5.5030    -1.3110     2.6690 ca         1 83P       0.277000
     19 C37          4.3770    -1.7070     1.9290 ca         1 83P      -0.203000
     20 N2          -2.6000     3.2370    -3.3830 ns         1 83P      -0.495900
     21 O4          -1.0710     1.6100    -3.7490 o          1 83P      -0.589100
     22 C9          -4.8470     1.3290     1.2520 ca         1 83P      -0.087800
     23 C10         -5.5760     2.4720     1.6090 ca         1 83P      -0.058000
     24 C13         -5.5990     0.1170     3.2010 ca         1 83P      -0.130000
     25 C14         -4.8550     0.1930     2.0150 ca         1 83P      -0.036200
     26 N15         -4.0620    -0.7880     1.4430 na         1 83P      -0.220700
     27 N18         -1.6670     0.1470    -1.3090 n          1 83P      -0.355800
     28 O22         -0.7950    -2.5690    -2.0670 os         1 83P      -0.205000
     29 C25          1.3910    -2.1000    -1.7530 cd         1 83P      -0.129300
     30 C26          2.7090    -1.4260    -1.4640 c3         1 83P       0.294100
     31 N27          2.9960    -1.6060    -0.0340 nu         1 83P      -0.966200
     32 C28          4.1280    -1.1800     0.6580 ca         1 83P       0.353000
     33 C29          5.0110    -0.2370     0.1110 ca         1 83P      -0.151000
     34 N32          7.5160     0.0690     2.7920 nb         1 83P      -0.612000
     35 N35          5.7050    -1.8510     3.9000 nb         1 83P      -0.644000
     36 H1          -2.7170     3.1730    -5.4850 h1         1 83P       0.040700
     37 H2          -3.1420     4.7460    -4.7450 h1         1 83P       0.040700
     38 H3          -1.4300     4.2310    -4.8240 h1         1 83P       0.040700
     39 H4          -1.5370     2.2050    -0.9130 h1         1 83P       0.049700
     40 H5          -3.7330     2.9640    -0.8600 hc         1 83P       0.068700
     41 H6          -4.3370     1.6630    -1.8850 hc         1 83P       0.068700
     42 H7          -6.9120     3.2910     3.1070 ha         1 83P       0.112000
     43 H8          -6.9330     1.2220     4.5070 ha         1 83P       0.111000
     44 H9          -2.1180    -1.6790    -0.2830 h1         1 83P       0.056200
     45 H10         -3.2420    -1.2620    -1.5990 h1         1 83P       0.056200
     46 H11         -0.6200    -4.6100    -2.5760 h4         1 83P       0.060100
     47 H12          2.0500    -4.1820    -2.2290 ha         1 83P       0.147000
     48 H14          8.5870    -0.1550     4.5750 h4         1 83P       0.027100
     49 H15          6.9830    -1.8560     5.5560 h4         1 83P       0.024100
     50 H16          3.6930    -2.4350     2.3530 ha         1 83P       0.127000
     51 H17         -3.2480     3.6350    -2.7140 hn         1 83P       0.316500
     52 H18         -5.5590     3.3660     0.9900 ha         1 83P       0.115000
     53 H19         -5.6030    -0.7880     3.8040 ha         1 83P       0.113000
     54 H20         -3.8980    -1.7260     1.7940 hn         1 83P       0.350000
     55 H21          3.4940    -1.8970    -2.0720 h1         1 83P       0.059700
     56 H22          2.6740    -0.3630    -1.7350 h1         1 83P       0.059700
     57 H23          2.4140    -2.2890     0.4510 hn         1 83P       0.475000
     58 H24          4.8290     0.1860    -0.8710 ha         1 83P       0.124000
     59 C19         -0.2800    -0.1500    -1.4380 c          1 83P       0.535600
     60 H13          6.8210     0.9060     0.4010 ha         1 83P       0.132000
@<TRIPOS>BOND
     1     1    20 1   
     2     1    36 1   
     3     1    37 1   
     4     1    38 1   
     5     2     3 1   
     6     2    20 1   
     7     2    21 2   
     8     3     4 1   
     9     3    27 1   
    10     3    39 1   
    11     4     5 1   
    12     4    40 1   
    13     4    41 1   
    14     5     8 2   
    15     5    22 1   
    16     6     7 ar  
    17     6    23 ar  
    18     6    42 1   
    19     7    24 ar  
    20     7    43 1   
    21     8     9 1   
    22     8    26 1   
    23     9    27 1   
    24     9    44 1   
    25     9    45 1   
    26    10    59 2   
    27    11    28 1   
    28    11    29 2   
    29    11    59 1   
    30    12    13 2   
    31    12    28 1   
    32    12    46 1   
    33    13    29 1   
    34    13    47 1   
    35    14    15 ar  
    36    14    33 ar  
    37    14    60 1   
    38    15    18 ar  
    39    15    34 ar  
    40    16    17 ar  
    41    16    34 ar  
    42    16    48 1   
    43    17    35 ar  
    44    17    49 1   
    45    18    19 ar  
    46    18    35 ar  
    47    19    32 ar  
    48    19    50 1   
    49    20    51 1   
    50    22    23 ar  
    51    22    25 ar  
    52    23    52 1   
    53    24    25 ar  
    54    24    53 1   
    55    25    26 1   
    56    26    54 1   
    57    27    59 1   
    58    29    30 1   
    59    30    31 1   
    60    30    55 1   
    61    30    56 1   
    62    31    32 1   
    63    31    57 1   
    64    32    33 ar  
    65    33    58 1   
@<TRIPOS>SUBSTRUCTURE
     1 83P         1 TEMP              0 ****  ****    0 ROOT
