@<TRIPOS>MOLECULE
83Q
   46    48     1     0     0
SMALL
abcg2


@<TRIPOS>ATOM
      1 C10         39.5270    26.0280    46.6080 c6         1 83Q       0.212800
      2 C13         35.7840    27.0880    46.5250 c3         1 83Q       0.157800
      3 C15         36.7110    24.9250    45.8080 c3         1 83Q      -0.092100
      4 C17         38.9510    26.5550    44.3310 c6         1 83Q       0.212800
      5 C21         44.9950    29.8090    44.1780 ca         1 83Q      -0.096000
      6 C22         46.1400    29.5610    43.4400 ca         1 83Q      -0.091000
      7 C24         46.6990    31.8830    43.4940 ca         1 83Q       0.128000
      8 C2          45.5490    32.1440    44.2300 ca         1 83Q       0.114000
      9 C3          44.6850    31.1040    44.5770 ca         1 83Q      -0.100000
     10 C5          42.2910    30.0350    45.4680 ca         1 83Q       0.196300
     11 C7          41.4860    28.2050    46.5730 ca         1 83Q       0.158900
     12 C8          40.6840    27.8650    45.4470 ca         1 83Q       0.652900
     13 C11         38.1680    26.5030    47.1140 c6         1 83Q      -0.096900
     14 C12         37.0690    26.3940    46.0440 c6         1 83Q      -0.039000
     15 C16         37.5630    27.0390    44.7420 c6         1 83Q      -0.096900
     16 C19         41.5000    29.7110    44.3440 ca         1 83Q       0.661900
     17 C23         47.0000    30.5910    43.0940 ca         1 83Q      -0.107000
     18 N6          42.2550    29.2650    46.5450 nb         1 83Q      -0.537000
     19 N9          39.9010    26.7640    45.4120 nh         1 83Q      -0.754300
     20 N14         35.9420    28.5070    46.8000 n8         1 83Q      -1.001200
     21 N18         40.7170    28.6390    44.3650 nb         1 83Q      -0.829000
     22 N20         41.5330    30.4340    43.2070 nv         1 83Q      -1.051900
     23 CL2         47.7610    33.1690    43.0650 cl         1 83Q      -0.178000
     24 H102        39.4980    24.9660    46.3520 h1         1 83Q       0.060950
     25 H101        40.2810    26.1260    47.3840 h1         1 83Q       0.060950
     26 H132        35.0370    26.9830    45.7330 h1         1 83Q       0.027700
     27 H131        35.3980    26.5220    47.3860 h1         1 83Q       0.027700
     28 H153        36.3630    24.4560    46.7310 hc         1 83Q       0.034700
     29 H151        35.9110    24.8370    45.0700 hc         1 83Q       0.034700
     30 H152        37.5500    24.3320    45.4440 hc         1 83Q       0.034700
     31 H171        39.2920    27.0720    43.4390 h1         1 83Q       0.060950
     32 H172        38.9420    25.4860    44.1000 h1         1 83Q       0.060950
     33 H211        44.3410    28.9910    44.4470 ha         1 83Q       0.133000
     34 H221        46.3700    28.5490    43.1340 ha         1 83Q       0.121000
     35 H071        41.4990    27.6210    47.4810 h4         1 83Q       0.030100
     36 H112        38.2790    27.5420    47.4410 hc         1 83Q       0.057200
     37 H111        37.8860    25.9220    47.9980 hc         1 83Q       0.057200
     38 H161        37.5930    28.1240    44.8650 hc         1 83Q       0.057200
     39 H162        36.8550    26.8300    43.9340 hc         1 83Q       0.057200
     40 H231        47.8950    30.3970    42.5200 ha         1 83Q       0.131000
     41 H1          35.0310    28.9420    46.8430 hn         1 83Q       0.395500
     42 H142        36.3490    28.6430    47.7160 hn         1 83Q       0.395500
     43 H201        40.8100    30.2620    42.5280 hn         1 83Q       0.493000
     44 H202        41.9080    31.3680    43.2290 hn         1 83Q       0.493000
     45 S4          43.2430    31.5120    45.5230 ss         1 83Q      -0.087300
     46 CL1         45.1770    33.7520    44.7210 cl         1 83Q      -0.164000
@<TRIPOS>BOND
     1     1    13 1   
     2     1    19 1   
     3     1    24 1   
     4     1    25 1   
     5     2    14 1   
     6     2    20 1   
     7     2    26 1   
     8     2    27 1   
     9     3    14 1   
    10     3    28 1   
    11     3    29 1   
    12     3    30 1   
    13     4    15 1   
    14     4    19 1   
    15     4    31 1   
    16     4    32 1   
    17     5     6 ar  
    18     5     9 ar  
    19     5    33 1   
    20     6    17 ar  
    21     6    34 1   
    22     7     8 ar  
    23     7    17 ar  
    24     7    23 1   
    25     8     9 ar  
    26     8    46 1   
    27     9    45 1   
    28    10    16 ar  
    29    10    18 ar  
    30    10    45 1   
    31    11    12 ar  
    32    11    18 ar  
    33    11    35 1   
    34    12    19 1   
    35    12    21 ar  
    36    13    14 1   
    37    13    36 1   
    38    13    37 1   
    39    14    15 1   
    40    15    38 1   
    41    15    39 1   
    42    16    21 ar  
    43    16    22 1   
    44    17    40 1   
    45    20    41 1   
    46    20    42 1   
    47    22    43 1   
    48    22    44 1   
@<TRIPOS>SUBSTRUCTURE
     1 83Q         1 TEMP              0 ****  ****    0 ROOT
