@<TRIPOS>MOLECULE
83Q
   46    48     1     0     0
SMALL
No Charge or Current Charge


@<TRIPOS>ATOM
      1 C10         39.5110    26.8560    46.5180 c6         1 83Q       0.212800
      2 C13         35.6600    25.8680    46.4650 c3         1 83Q       0.157800
      3 C15         37.4570    25.0810    44.9200 c3         1 83Q      -0.092100
      4 C17         38.4100    28.0760    44.6260 c6         1 83Q       0.212800
      5 C21         45.5160    29.6670    45.0690 ca         1 83Q      -0.096000
      6 C22         46.4080    28.8710    44.3290 ca         1 83Q      -0.091000
      7 C24         46.4730    30.5660    42.5810 ca         1 83Q       0.128000
      8 C2          45.5770    31.3680    43.3220 ca         1 83Q       0.114000
      9 C3          45.0970    30.9140    44.5700 ca         1 83Q      -0.100000
     10 C5          42.5840    30.7530    45.6430 ca         1 83Q       0.196300
     11 C7          41.2480    29.3740    46.8900 ca         1 83Q       0.158900
     12 C8          40.4950    29.0270    45.7180 ca         1 83Q       0.652900
     13 C11         38.1270    26.3860    47.0320 c6         1 83Q      -0.096900
     14 C12         37.0720    26.2480    45.8900 c6         1 83Q      -0.039000
     15 C16         37.0190    27.6040    45.1220 c6         1 83Q      -0.096900
     16 C19         41.8110    30.3890    44.4850 ca         1 83Q       0.661900
     17 C23         46.8850    29.3210    43.0870 ca         1 83Q      -0.107000
     18 N6          42.2990    30.2410    46.8700 nb         1 83Q      -0.537000
     19 N9          39.4020    28.1260    45.7440 nh         1 83Q      -0.754300
     20 N14         35.0750    26.8340    47.4200 n8         1 83Q      -1.001200
     21 N18         40.7780    29.5500    44.5010 nb         1 83Q      -0.829000
     22 N20         41.9690    30.8390    43.2280 nv         1 83Q      -1.051900
     23 Cl2         47.0920    31.0960    41.0160 cl         1 83Q      -0.178000
     24 H102        39.9610    26.0730    45.8910 h1         1 83Q       0.060950
     25 H101        40.1730    26.9760    47.3870 h1         1 83Q       0.060950
     26 H132        34.9550    25.7510    45.6300 h1         1 83Q       0.027700
     27 H131        35.7360    24.8970    46.9750 h1         1 83Q       0.027700
     28 H153        37.5060    24.1220    45.4510 hc         1 83Q       0.034700
     29 H151        36.7180    24.9720    44.1160 hc         1 83Q       0.034700
     30 H152        38.4300    25.2310    44.4400 hc         1 83Q       0.034700
     31 H171        38.2780    29.0720    44.1780 h1         1 83Q       0.060950
     32 H172        38.7700    27.4110    43.8280 h1         1 83Q       0.060950
     33 H211        45.1530    29.3130    46.0320 ha         1 83Q       0.133000
     34 H221        46.7290    27.9080    44.7200 ha         1 83Q       0.121000
     35 H071        40.9920    28.9600    47.8640 h4         1 83Q       0.030100
     36 H112        37.7810    27.1100    47.7810 hc         1 83Q       0.057200
     37 H111        38.2410    25.4300    47.5620 hc         1 83Q       0.057200
     38 H161        36.6090    28.3870    45.7740 hc         1 83Q       0.057200
     39 H162        36.3330    27.5310    44.2680 hc         1 83Q       0.057200
     40 H231        47.5750    28.7050    42.5140 ha         1 83Q       0.131000
     41 H1          34.2010    26.4470    47.7940 hn         1 83Q       0.395500
     42 H142        35.6840    26.8960    48.2420 hn         1 83Q       0.395500
     43 H201        41.1800    30.6470    42.6250 hn         1 83Q       0.493000
     44 H202        42.4440    31.7230    43.0950 hn         1 83Q       0.493000
     45 S4          43.9550    31.9040    45.5340 ss         1 83Q      -0.087300
     46 Cl1         45.0480    32.9310    42.6850 cl         1 83Q      -0.164000
@<TRIPOS>BOND
     1     1    13 1   
     2     1    19 1   
     3     1    24 1   
     4     1    25 1   
     5     2    14 1   
     6     2    20 1   
     7     2    26 1   
     8     2    27 1   
     9     3    14 1   
    10     3    28 1   
    11     3    29 1   
    12     3    30 1   
    13     4    15 1   
    14     4    19 1   
    15     4    31 1   
    16     4    32 1   
    17     5     6 ar  
    18     5     9 ar  
    19     5    33 1   
    20     6    17 ar  
    21     6    34 1   
    22     7     8 ar  
    23     7    17 ar  
    24     7    23 1   
    25     8     9 ar  
    26     8    46 1   
    27     9    45 1   
    28    10    16 ar  
    29    10    18 ar  
    30    10    45 1   
    31    11    12 ar  
    32    11    18 ar  
    33    11    35 1   
    34    12    19 1   
    35    12    21 ar  
    36    13    14 1   
    37    13    36 1   
    38    13    37 1   
    39    14    15 1   
    40    15    38 1   
    41    15    39 1   
    42    16    21 ar  
    43    16    22 1   
    44    17    40 1   
    45    20    41 1   
    46    20    42 1   
    47    22    43 1   
    48    22    44 1   
@<TRIPOS>SUBSTRUCTURE
     1 83Q         1 TEMP              0 ****  ****    0 ROOT
