@<TRIPOS>MOLECULE
83R
   21    23     1     0     0
SMALL
bcc


@<TRIPOS>ATOM
      1 C6          -2.9760    -1.4820     0.0090 ca         1 83R      -0.133000
      2 C5          -1.6120    -1.7070     0.0130 ca         1 83R      -0.090000
      3 C4           1.2330     0.6820     0.0050 ca         1 83R      -0.006100
      4 S1          -0.0160     1.9010    -0.0040 ss         1 83R      -0.092800
      5 C2          -0.7350    -0.6230     0.0090 cp         1 83R      -0.045000
      6 C7          -3.4820    -0.1790     0.0020 ca         1 83R      -0.117000
      7 C8          -2.6310     0.9120    -0.0020 ca         1 83R      -0.103000
      8 C9           2.6030     0.9210     0.0050 ca         1 83R      -0.103000
      9 C10          3.4580    -0.1670     0.0130 ca         1 83R      -0.117000
     10 C11          2.9570    -1.4710     0.0200 ca         1 83R      -0.133000
     11 C12          1.5940    -1.7020     0.0190 ca         1 83R      -0.090000
     12 C1          -1.2600     0.6770     0.0010 ca         1 83R      -0.006100
     13 C3           0.7130    -0.6200     0.0110 cp         1 83R      -0.045000
     14 H2          -3.6600    -2.3200     0.0120 ha         1 83R       0.133000
     15 H1          -1.2310    -2.7210     0.0190 ha         1 83R       0.134000
     16 H3          -4.5520    -0.0190    -0.0020 ha         1 83R       0.132000
     17 H4          -3.0230     1.9200    -0.0060 ha         1 83R       0.141000
     18 H5           2.9920     1.9310    -0.0010 ha         1 83R       0.141000
     19 H6           4.5280    -0.0030     0.0130 ha         1 83R       0.132000
     20 H7           3.6430    -2.3070     0.0260 ha         1 83R       0.133000
     21 H8           1.2160    -2.7170     0.0250 ha         1 83R       0.134000
@<TRIPOS>BOND
     1     1     2 ar  
     2     1     6 ar  
     3     1    14 1   
     4     2     5 ar  
     5     2    15 1   
     6     3     4 1   
     7     3     8 ar  
     8     3    13 ar  
     9     4    12 1   
    10     5    12 ar  
    11     5    13 1   
    12     6     7 ar  
    13     6    16 1   
    14     7    12 ar  
    15     7    17 1   
    16     8     9 ar  
    17     8    18 1   
    18     9    10 ar  
    19     9    19 1   
    20    10    11 ar  
    21    10    20 1   
    22    11    13 ar  
    23    11    21 1   
@<TRIPOS>SUBSTRUCTURE
     1 83R         1 TEMP              0 ****  ****    0 ROOT
