@<TRIPOS>MOLECULE
83R
   21    23     1     0     0
SMALL
No Charge or Current Charge


@<TRIPOS>ATOM
      1 C6          -3.0060    -1.5060     0.0100 ca         1 83R      -0.115000
      2 C5          -1.6080    -1.6970     0.0130 ca         1 83R      -0.072000
      3 C4           1.2980     0.7120     0.0050 ca         1 83R      -0.133000
      4 S1          -0.0160     1.9320    -0.0040 ss         1 83R       0.161000
      5 C2          -0.7510    -0.5730     0.0090 cp         1 83R      -0.045000
      6 C7          -3.5540    -0.2030     0.0020 ca         1 83R      -0.099000
      7 C8          -2.7090     0.9240    -0.0030 ca         1 83R      -0.085000
      8 C9           2.6810     0.9330     0.0060 ca         1 83R      -0.085000
      9 C10          3.5300    -0.1900     0.0130 ca         1 83R      -0.099000
     10 C11          2.9870    -1.4950     0.0200 ca         1 83R      -0.115000
     11 C12          1.5900    -1.6910     0.0180 ca         1 83R      -0.072000
     12 C1          -1.3250     0.7070     0.0010 ca         1 83R      -0.133000
     13 C3           0.7290    -0.5700     0.0110 cp         1 83R      -0.045000
     14 H2          -3.6680    -2.3690     0.0140 ha         1 83R       0.115000
     15 H1          -1.1980    -2.7030     0.0190 ha         1 83R       0.116000
     16 H3          -4.6340    -0.0690    -0.0010 ha         1 83R       0.114000
     17 H4          -3.1190     1.9310    -0.0090 ha         1 83R       0.123000
     18 H5           3.0870     1.9420     0.0010 ha         1 83R       0.123000
     19 H6           4.6100    -0.0530     0.0140 ha         1 83R       0.114000
     20 H7           3.6520    -2.3560     0.0250 ha         1 83R       0.115000
     21 H8           1.1830    -2.6990     0.0230 ha         1 83R       0.116000
@<TRIPOS>BOND
     1     1     2 ar  
     2     1     6 ar  
     3     1    14 1   
     4     2     5 ar  
     5     2    15 1   
     6     3     4 1   
     7     3     8 ar  
     8     3    13 ar  
     9     4    12 1   
    10     5    12 ar  
    11     5    13 1   
    12     6     7 ar  
    13     6    16 1   
    14     7    12 ar  
    15     7    17 1   
    16     8     9 ar  
    17     8    18 1   
    18     9    10 ar  
    19     9    19 1   
    20    10    11 ar  
    21    10    20 1   
    22    11    13 ar  
    23    11    21 1   
@<TRIPOS>SUBSTRUCTURE
     1 83R         1 TEMP              0 ****  ****    0 ROOT
