@<TRIPOS>MOLECULE
83S
   42    44     1     0     0
SMALL
abcg2


@<TRIPOS>ATOM
      1 C23         -1.7890     0.0420    -0.7900 c5         1 83S       0.149300
      2 C17         -3.9180    -0.5580     0.0710 ca         1 83S      -0.104300
      3 C20         -5.3840     0.6440    -1.9380 ca         1 83S      -0.105000
      4 C11          4.3810     0.8080    -1.3830 c          1 83S       0.579500
      5 C18         -5.3010    -0.6250     0.1170 ca         1 83S      -0.087500
      6 C19         -6.0320    -0.0180    -0.8970 ca         1 83S      -0.105000
      7 C21         -3.9970     0.7090    -1.9780 ca         1 83S      -0.087500
      8 C01          2.4510     3.5170     0.8840 c3         1 83S      -0.087600
      9 C03          3.5730     2.0100     2.5730 c3         1 83S      -0.087600
     10 C04          2.6440     1.0650     0.4330 ca         1 83S      -0.067300
     11 C05          1.4530     0.5900     0.9770 ca         1 83S      -0.053000
     12 C06          0.7480    -0.4700     0.4290 ca         1 83S      -0.208600
     13 C07          1.2570    -1.1290    -0.6950 ca         1 83S       0.155100
     14 O08          0.6550    -2.1830    -1.2820 oh         1 83S      -0.535100
     15 C09          2.4430    -0.6830    -1.2460 ca         1 83S      -0.102000
     16 C10          3.1310     0.4030    -0.7040 ca         1 83S      -0.145600
     17 O12          4.8200     0.2540    -2.3650 o          1 83S      -0.513100
     18 O14         -0.4660    -1.4050     2.2380 o          1 83S      -0.581100
     19 N15         -1.6490    -0.7480     0.4370 n          1 83S      -0.418800
     20 C16         -2.9280    -1.1200     1.0400 c5         1 83S       0.149300
     21 C22         -3.2750     0.1020    -0.9630 ca         1 83S      -0.104300
     22 H1          -1.3520     1.0370    -0.6730 h1         1 83S       0.066200
     23 H2          -1.3050    -0.4350    -1.6440 h1         1 83S       0.066200
     24 H3          -5.9650     1.1110    -2.7220 ha         1 83S       0.117000
     25 H4           4.9210     1.6630    -0.9540 h4         1 83S      -0.003800
     26 H5          -5.8060    -1.1380     0.9250 ha         1 83S       0.119500
     27 H6          -7.1130    -0.0600    -0.8790 ha         1 83S       0.117000
     28 H7          -3.4940     1.2210    -2.7890 ha         1 83S       0.119500
     29 H8           2.9390     4.3850     1.3290 hc         1 83S       0.038367
     30 H9           2.3000     3.7230    -0.1760 hc         1 83S       0.038367
     31 H10          1.4680     3.4150     1.3470 hc         1 83S       0.038367
     32 H11          4.2690     2.4530     0.6260 hc         1 83S       0.049700
     33 H12          2.6520     1.8650     3.1390 hc         1 83S       0.038367
     34 H13          4.1990     1.1280     2.7170 hc         1 83S       0.038367
     35 H14          4.0930     2.8630     3.0100 hc         1 83S       0.038367
     36 H15          1.0450     1.0750     1.8550 ha         1 83S       0.127000
     37 H16         -0.1020    -2.5020    -0.7790 ho         1 83S       0.478000
     38 H17          2.8410    -1.1940    -2.1150 ha         1 83S       0.152000
     39 H18         -3.0340    -0.6850     2.0380 h1         1 83S       0.066200
     40 H19         -3.0120    -2.2040     1.1470 h1         1 83S       0.066200
     41 C13         -0.5060    -0.9170     1.1180 c          1 83S       0.604700
     42 C02          3.3010     2.2620     1.0900 c3         1 83S      -0.016400
@<TRIPOS>BOND
     1     1    19 1   
     2     1    21 1   
     3     1    22 1   
     4     1    23 1   
     5     2     5 ar  
     6     2    20 1   
     7     2    21 ar  
     8     3     6 ar  
     9     3     7 ar  
    10     3    24 1   
    11     4    16 1   
    12     4    17 2   
    13     4    25 1   
    14     5     6 ar  
    15     5    26 1   
    16     6    27 1   
    17     7    21 ar  
    18     7    28 1   
    19     8    29 1   
    20     8    30 1   
    21     8    31 1   
    22     8    42 1   
    23     9    33 1   
    24     9    34 1   
    25     9    35 1   
    26     9    42 1   
    27    10    11 ar  
    28    10    16 ar  
    29    10    42 1   
    30    11    12 ar  
    31    11    36 1   
    32    12    13 ar  
    33    12    41 1   
    34    13    14 1   
    35    13    15 ar  
    36    14    37 1   
    37    15    16 ar  
    38    15    38 1   
    39    18    41 2   
    40    19    20 1   
    41    19    41 1   
    42    20    39 1   
    43    20    40 1   
    44    32    42 1   
@<TRIPOS>SUBSTRUCTURE
     1 83S         1 TEMP              0 ****  ****    0 ROOT
