@<TRIPOS>MOLECULE
83S
   42    44     1     0     0
SMALL
No Charge or Current Charge


@<TRIPOS>ATOM
      1 C23         -1.9670     0.0750    -0.8370 c5         1 83S       0.149300
      2 C17         -4.0340    -0.8030    -0.0190 ca         1 83S      -0.104300
      3 C20         -5.6510     0.4990    -1.8900 ca         1 83S      -0.105000
      4 C11          4.4350     0.9190    -1.4080 c          1 83S       0.579500
      5 C18         -5.4250    -0.9970     0.0290 ca         1 83S      -0.087500
      6 C19         -6.2360    -0.3390    -0.9160 ca         1 83S      -0.105000
      7 C21         -4.2550     0.6810    -1.9200 ca         1 83S      -0.087500
      8 C01          3.2650     3.5590     0.7200 c3         1 83S      -0.087600
      9 C03          3.4790     2.1050     2.8040 c3         1 83S      -0.087600
     10 C04          2.7420     1.0800     0.5340 ca         1 83S      -0.067300
     11 C05          1.5080     0.6660     1.0910 ca         1 83S      -0.053000
     12 C06          0.6960    -0.3030     0.4670 ca         1 83S      -0.208600
     13 C07          1.1480    -0.9050    -0.7240 ca         1 83S       0.155100
     14 O08          0.4620    -1.9230    -1.3230 oh         1 83S      -0.535100
     15 C09          2.3580    -0.4950    -1.2970 ca         1 83S      -0.102000
     16 C10          3.1600     0.5050    -0.7000 ca         1 83S      -0.145600
     17 O12          4.8930     0.3150    -2.3730 o          1 83S      -0.513100
     18 O14         -0.6360    -0.9260     2.3340 o          1 83S      -0.581100
     19 N15         -1.7280    -0.8670     0.3150 n          1 83S      -0.418800
     20 C16         -3.0040    -1.4070     0.8970 c5         1 83S       0.149300
     21 C22         -3.4640     0.0160    -0.9690 ca         1 83S      -0.104300
     22 H1          -1.6300     1.0950    -0.6070 h1         1 83S       0.066200
     23 H2          -1.4810    -0.2570    -1.7630 h1         1 83S       0.066200
     24 H3          -6.2800     1.0060    -2.6180 ha         1 83S       0.117000
     25 H4           4.9610     1.8190    -1.0270 h4         1 83S      -0.003800
     26 H5          -5.8690    -1.6440     0.7830 ha         1 83S       0.119500
     27 H6          -7.3150    -0.4770    -0.8950 ha         1 83S       0.117000
     28 H7          -3.7980     1.3250    -2.6680 ha         1 83S       0.119500
     29 H8           3.9100     4.3110     1.1890 hc         1 83S       0.038367
     30 H9           3.4170     3.6080    -0.3640 hc         1 83S       0.038367
     31 H10          2.2210     3.8230     0.9290 hc         1 83S       0.038367
     32 H11          4.6490     1.9550     1.0640 hc         1 83S       0.049700
     33 H12          2.5050     2.4680     3.1530 hc         1 83S       0.038367
     34 H13          3.6270     1.0840     3.1750 hc         1 83S       0.038367
     35 H14          4.2480     2.7420     3.2570 hc         1 83S       0.038367
     36 H15          1.1500     1.1110     2.0150 ha         1 83S       0.127000
     37 H16         -0.3780    -2.0650    -0.8360 ho         1 83S       0.478000
     38 H17          2.6760    -0.9670    -2.2240 ha         1 83S       0.152000
     39 H18         -3.1630    -1.0780     1.9330 h1         1 83S       0.066200
     40 H19         -3.0310    -2.5040     0.8640 h1         1 83S       0.066200
     41 C13         -0.5970    -0.6870     1.1340 c          1 83S       0.604700
     42 C02          3.5880     2.1480     1.2590 c3         1 83S      -0.016400
@<TRIPOS>BOND
     1     1    19 1   
     2     1    21 1   
     3     1    22 1   
     4     1    23 1   
     5     2     5 ar  
     6     2    20 1   
     7     2    21 ar  
     8     3     6 ar  
     9     3     7 ar  
    10     3    24 1   
    11     4    16 1   
    12     4    17 2   
    13     4    25 1   
    14     5     6 ar  
    15     5    26 1   
    16     6    27 1   
    17     7    21 ar  
    18     7    28 1   
    19     8    29 1   
    20     8    30 1   
    21     8    31 1   
    22     8    42 1   
    23     9    33 1   
    24     9    34 1   
    25     9    35 1   
    26     9    42 1   
    27    10    11 ar  
    28    10    16 ar  
    29    10    42 1   
    30    11    12 ar  
    31    11    36 1   
    32    12    13 ar  
    33    12    41 1   
    34    13    14 1   
    35    13    15 ar  
    36    14    37 1   
    37    15    16 ar  
    38    15    38 1   
    39    18    41 2   
    40    19    20 1   
    41    19    41 1   
    42    20    39 1   
    43    20    40 1   
    44    32    42 1   
@<TRIPOS>SUBSTRUCTURE
     1 83S         1 TEMP              0 ****  ****    0 ROOT
