@<TRIPOS>MOLECULE
83T
   61    63     1     0     0
SMALL
No Charge or Current Charge


@<TRIPOS>ATOM
      1 C01        -19.4470     1.7680    -5.5030 c3         1 83T       0.141100
      2 N05        -18.9570     3.1400    -5.7400 n7         1 83T      -0.857400
      3 C07        -17.7340     3.5040    -5.0010 c3         1 83T       0.199100
      4 C10        -17.2970     4.9210    -5.3520 ca         1 83T      -0.084300
      5 C11        -16.3310     5.1420    -6.3510 ca         1 83T      -0.095500
      6 C13        -15.9240     6.4490    -6.6690 ca         1 83T      -0.103000
      7 C15        -16.4710     7.5720    -5.9990 cp         1 83T      -0.034000
      8 C16        -17.4440     7.3310    -4.9960 ca         1 83T      -0.103000
      9 C18        -17.8520     6.0240    -4.6770 ca         1 83T      -0.095500
     10 C20        -16.0280     8.9640    -6.3320 cp         1 83T      -0.039000
     11 C21        -15.6810     9.3300    -7.6530 ca         1 83T      -0.087000
     12 C23        -15.2520    10.6310    -7.9550 ca         1 83T      -0.128000
     13 C25        -15.1880    11.6210    -6.9550 ca         1 83T      -0.030000
     14 N26        -14.5610    12.9050    -7.1890 n          1 83T      -0.244400
     15 C27        -15.1290    14.0790    -6.4550 c6         1 83T       0.118700
     16 C29        -16.0170    14.9610    -7.3750 c3         1 83T      -0.102100
     17 C33        -15.9370    13.6660    -5.1890 c6         1 83T      -0.101400
     18 C36        -15.3750    12.3770    -4.5560 c6         1 83T       0.181000
     19 N38        -16.0910    12.0810    -3.3050 ns         1 83T      -0.500900
     20 C40        -15.6730    11.2540    -2.2960 c          1 83T       0.640100
     21 O41        -16.3460    11.0260    -1.3060 o          1 83T      -0.546000
     22 O42        -14.4300    10.7440    -2.5510 os         1 83T      -0.468100
     23 C43        -13.8980     9.7290    -1.6820 c3         1 83T       0.190300
     24 C45        -12.3820     9.6800    -1.9420 c3         1 83T      -0.105600
     25 C49        -14.5920     8.3870    -2.0120 c3         1 83T      -0.105600
     26 C53        -15.4940    11.2680    -5.6210 ca         1 83T      -0.122300
     27 C54        -15.9300     9.9560    -5.3280 ca         1 83T      -0.071000
     28 C56        -13.3560    13.0950    -7.9290 c          1 83T       0.606100
     29 C57        -12.4920    11.8880    -8.3150 c3         1 83T      -0.170100
     30 O61        -12.9510    14.2200    -8.2010 o          1 83T      -0.601100
     31 H011       -20.3600     1.5780    -6.0830 h1         1 83T       0.031367
     32 H012       -18.6940     1.0260    -5.8000 h1         1 83T       0.031367
     33 H013       -19.6810     1.6140    -4.4410 h1         1 83T       0.031367
     34 H05        -18.7560     3.2420    -6.7430 hn         1 83T       0.408000
     35 H071       -17.9080     3.4410    -3.9170 h1         1 83T       0.037700
     36 H072       -16.9190     2.8080    -5.2410 h1         1 83T       0.037700
     37 H11        -15.8900     4.2990    -6.8800 ha         1 83T       0.117000
     38 H18        -18.6040     5.8670    -3.9070 ha         1 83T       0.117000
     39 H13        -15.1650     6.5900    -7.4340 ha         1 83T       0.114500
     40 H16        -17.9000     8.1640    -4.4680 ha         1 83T       0.114500
     41 H21        -15.7500     8.5990    -8.4550 ha         1 83T       0.119000
     42 H54        -16.1810     9.6800    -4.3110 ha         1 83T       0.122000
     43 H23        -15.0060    10.8740    -8.9850 ha         1 83T       0.122000
     44 H27        -14.2880    14.6990    -6.1090 h1         1 83T       0.080700
     45 H291       -16.4130    15.8260    -6.8300 hc         1 83T       0.047367
     46 H292       -15.4500    15.3430    -8.2310 hc         1 83T       0.047367
     47 H293       -16.8680    14.3920    -7.7680 hc         1 83T       0.047367
     48 H331       -15.9260    14.4890    -4.4620 hc         1 83T       0.058700
     49 H332       -16.9900    13.4970    -5.4530 hc         1 83T       0.058700
     50 H36        -14.3100    12.5330    -4.3220 h1         1 83T       0.089700
     51 H38        -17.0050    12.4920    -3.1730 hn         1 83T       0.329500
     52 H43        -14.0630     9.9830    -0.6250 h1         1 83T       0.069700
     53 H451       -11.9080     8.9170    -1.3130 hc         1 83T       0.048367
     54 H452       -12.1730     9.4400    -2.9920 hc         1 83T       0.048367
     55 H453       -11.9220    10.6480    -1.7090 hc         1 83T       0.048367
     56 H491       -14.1580     7.5770    -1.4150 hc         1 83T       0.048367
     57 H492       -15.6640     8.4290    -1.7900 hc         1 83T       0.048367
     58 H493       -14.4680     8.1340    -3.0720 hc         1 83T       0.048367
     59 H571       -11.4460    12.1760    -8.4680 hc         1 83T       0.065033
     60 H572       -12.5910    11.0830    -7.5790 hc         1 83T       0.065033
     61 H573       -12.8760    11.4660    -9.2490 hc         1 83T       0.065033
@<TRIPOS>BOND
     1     1     2 1   
     2     1    31 1   
     3     1    32 1   
     4     1    33 1   
     5     2     3 1   
     6     2    34 1   
     7     3     4 1   
     8     3    35 1   
     9     3    36 1   
    10     4     5 ar  
    11     4     9 ar  
    12     5     6 ar  
    13     5    37 1   
    14     6     7 ar  
    15     6    39 1   
    16     7     8 ar  
    17     7    10 1   
    18     8     9 ar  
    19     8    40 1   
    20     9    38 1   
    21    10    11 ar  
    22    10    27 ar  
    23    11    12 ar  
    24    11    41 1   
    25    12    13 ar  
    26    12    43 1   
    27    13    14 1   
    28    13    26 ar  
    29    14    15 1   
    30    14    28 1   
    31    15    16 1   
    32    15    17 1   
    33    15    44 1   
    34    16    45 1   
    35    16    46 1   
    36    16    47 1   
    37    17    18 1   
    38    17    48 1   
    39    17    49 1   
    40    18    19 1   
    41    18    26 1   
    42    18    50 1   
    43    19    20 1   
    44    19    51 1   
    45    20    21 2   
    46    20    22 1   
    47    22    23 1   
    48    23    24 1   
    49    23    25 1   
    50    23    52 1   
    51    24    53 1   
    52    24    54 1   
    53    24    55 1   
    54    25    56 1   
    55    25    57 1   
    56    25    58 1   
    57    26    27 ar  
    58    27    42 1   
    59    28    29 1   
    60    28    30 2   
    61    29    59 1   
    62    29    60 1   
    63    29    61 1   
@<TRIPOS>SUBSTRUCTURE
     1 83T         1 TEMP              0 ****  ****    0 ROOT
