@<TRIPOS>MOLECULE
83T
   61    63     1     0     0
SMALL
abcg2


@<TRIPOS>ATOM
      1 C01        -19.7570     1.9890    -5.5370 c3         1 83T       0.141100
      2 N05        -19.2630     3.3470    -5.7510 n7         1 83T      -0.857400
      3 C07        -17.9180     3.5390    -5.1990 c3         1 83T       0.199100
      4 C10        -17.4070     4.9260    -5.4810 ca         1 83T      -0.084300
      5 C11        -16.4330     5.1490    -6.4520 ca         1 83T      -0.095500
      6 C13        -15.9800     6.4330    -6.7320 ca         1 83T      -0.103000
      7 C15        -16.4900     7.5410    -6.0470 cp         1 83T      -0.034000
      8 C16        -17.4700     7.3130    -5.0710 ca         1 83T      -0.103000
      9 C18        -17.9180     6.0300    -4.7960 ca         1 83T      -0.095500
     10 C20        -16.0020     8.9060    -6.3370 cp         1 83T      -0.039000
     11 C21        -15.5990     9.2730    -7.6260 ca         1 83T      -0.087000
     12 C23        -15.1280    10.5510    -7.8920 ca         1 83T      -0.128000
     13 C25        -15.0200    11.4800    -6.8620 ca         1 83T      -0.030000
     14 N26        -14.5260    12.7950    -7.0560 n          1 83T      -0.244400
     15 C27        -15.3160    13.9160    -6.4850 c6         1 83T       0.118700
     16 C29        -16.2700    14.4900    -7.5260 c3         1 83T      -0.102100
     17 C33        -16.0560    13.4800    -5.2100 c6         1 83T      -0.101400
     18 C36        -15.3960    12.2620    -4.5560 c6         1 83T       0.181000
     19 N38        -16.0540    11.9610    -3.2990 ns         1 83T      -0.500900
     20 C40        -15.5510    11.1880    -2.3070 c          1 83T       0.640100
     21 O41        -16.1880    10.8550    -1.3170 o          1 83T      -0.546000
     22 O42        -14.2700    10.8530    -2.5380 os         1 83T      -0.468100
     23 C43        -13.6500     9.8750    -1.6510 c3         1 83T       0.190300
     24 C45        -12.1620    10.1570    -1.6880 c3         1 83T      -0.105600
     25 C49        -14.0120     8.4800    -2.1280 c3         1 83T      -0.105600
     26 C53        -15.4500    11.1450    -5.5750 ca         1 83T      -0.122300
     27 C54        -15.9370     9.8740    -5.3270 ca         1 83T      -0.071000
     28 C56        -13.3410    13.0930    -7.6690 c          1 83T       0.606100
     29 C57        -12.4150    11.9630    -8.0530 c3         1 83T      -0.170100
     30 O61        -13.0140    14.2620    -7.8770 o          1 83T      -0.601100
     31 H011       -20.7240     1.8700    -6.0280 h1         1 83T       0.031367
     32 H012       -19.0760     1.2130    -5.9180 h1         1 83T       0.031367
     33 H013       -19.8940     1.8160    -4.4670 h1         1 83T       0.031367
     34 H05        -19.2310     3.5370    -6.7470 hn         1 83T       0.408000
     35 H071       -17.9820     3.3790    -4.1180 h1         1 83T       0.037700
     36 H072       -17.2040     2.8000    -5.5920 h1         1 83T       0.037700
     37 H11        -16.0160     4.3060    -6.9910 ha         1 83T       0.117000
     38 H18        -18.6810     5.8800    -4.0410 ha         1 83T       0.117000
     39 H13        -15.2050     6.5710    -7.4750 ha         1 83T       0.114500
     40 H16        -17.8960     8.1490    -4.5330 ha         1 83T       0.114500
     41 H21        -15.6820     8.5650    -8.4390 ha         1 83T       0.119000
     42 H54        -16.2540     9.6170    -4.3270 ha         1 83T       0.122000
     43 H23        -14.8530    10.8270    -8.9000 ha         1 83T       0.122000
     44 H27        -14.5800    14.6710    -6.2190 h1         1 83T       0.080700
     45 H291       -16.8380    15.3190    -7.0980 hc         1 83T       0.047367
     46 H292       -15.7190    14.8580    -8.3920 hc         1 83T       0.047367
     47 H293       -16.9760    13.7250    -7.8540 hc         1 83T       0.047367
     48 H331       -16.0780    14.3170    -4.5120 hc         1 83T       0.058700
     49 H332       -17.0910    13.2170    -5.4460 hc         1 83T       0.058700
     50 H36        -14.3510    12.4990    -4.3450 h1         1 83T       0.089700
     51 H38        -17.0350    12.1740    -3.2140 hn         1 83T       0.329500
     52 H43        -14.0450    10.0460    -0.6500 h1         1 83T       0.069700
     53 H451       -11.6430     9.4610    -1.0270 hc         1 83T       0.048367
     54 H452       -11.7710    10.0290    -2.6990 hc         1 83T       0.048367
     55 H453       -11.9510    11.1730    -1.3540 hc         1 83T       0.048367
     56 H491       -13.5600     7.7360    -1.4700 hc         1 83T       0.048367
     57 H492       -15.0920     8.3330    -2.1220 hc         1 83T       0.048367
     58 H493       -13.6410     8.3180    -3.1420 hc         1 83T       0.048367
     59 H571       -11.4000    12.3530    -8.0280 hc         1 83T       0.065033
     60 H572       -12.5010    11.1010    -7.3950 hc         1 83T       0.065033
     61 H573       -12.6270    11.6350    -9.0720 hc         1 83T       0.065033
@<TRIPOS>BOND
     1     1     2 1   
     2     1    31 1   
     3     1    32 1   
     4     1    33 1   
     5     2     3 1   
     6     2    34 1   
     7     3     4 1   
     8     3    35 1   
     9     3    36 1   
    10     4     5 ar  
    11     4     9 ar  
    12     5     6 ar  
    13     5    37 1   
    14     6     7 ar  
    15     6    39 1   
    16     7     8 ar  
    17     7    10 1   
    18     8     9 ar  
    19     8    40 1   
    20     9    38 1   
    21    10    11 ar  
    22    10    27 ar  
    23    11    12 ar  
    24    11    41 1   
    25    12    13 ar  
    26    12    43 1   
    27    13    14 1   
    28    13    26 ar  
    29    14    15 1   
    30    14    28 1   
    31    15    16 1   
    32    15    17 1   
    33    15    44 1   
    34    16    45 1   
    35    16    46 1   
    36    16    47 1   
    37    17    18 1   
    38    17    48 1   
    39    17    49 1   
    40    18    19 1   
    41    18    26 1   
    42    18    50 1   
    43    19    20 1   
    44    19    51 1   
    45    20    21 2   
    46    20    22 1   
    47    22    23 1   
    48    23    24 1   
    49    23    25 1   
    50    23    52 1   
    51    24    53 1   
    52    24    54 1   
    53    24    55 1   
    54    25    56 1   
    55    25    57 1   
    56    25    58 1   
    57    26    27 ar  
    58    27    42 1   
    59    28    29 1   
    60    28    30 2   
    61    29    59 1   
    62    29    60 1   
    63    29    61 1   
@<TRIPOS>SUBSTRUCTURE
     1 83T         1 TEMP              0 ****  ****    0 ROOT
