@<TRIPOS>MOLECULE
83U
   22    24     1     0     0
SMALL
No Charge or Current Charge


@<TRIPOS>ATOM
      1 C4           1.3130    -0.4920    -0.1560 ca         1 83U      -0.053500
      2 C7          -2.6830    -0.7080    -0.2110 ca         1 83U      -0.037000
      3 C1          -0.7350     0.7790     0.0010 cp         1 83U       0.006000
      4 C10          3.0000     1.7060     0.1140 ca         1 83U      -0.086000
      5 S1           0.0090    -1.7710    -0.3120 sx         1 83U       0.305000
      6 C2           0.7450     0.7810     0.0070 cp         1 83U       0.006000
      7 C3          -1.2990    -0.4940    -0.1650 ca         1 83U      -0.053500
      8 C5          -1.5950     1.8920     0.1310 ca         1 83U      -0.092000
      9 C6           1.6030     1.8950     0.1430 ca         1 83U      -0.092000
     10 C8           2.6980    -0.7040    -0.1900 ca         1 83U      -0.037000
     11 C9          -2.9920     1.7010     0.0910 ca         1 83U      -0.086000
     12 C11         -3.5340     0.4070    -0.0790 ca         1 83U      -0.115000
     13 C12          3.5450     0.4130    -0.0530 ca         1 83U      -0.115000
     14 H3          -3.0880    -1.7090    -0.3410 ha         1 83U       0.123000
     15 H6           3.6630     2.5620     0.2190 ha         1 83U       0.115000
     16 H1          -1.1880     2.8920     0.2600 ha         1 83U       0.118000
     17 H2           1.1930     2.8940     0.2690 ha         1 83U       0.118000
     18 H4           3.1060    -1.7040    -0.3180 ha         1 83U       0.123000
     19 H5          -3.6570     2.5560     0.1910 ha         1 83U       0.115000
     20 H7          -4.6120     0.2710    -0.1090 ha         1 83U       0.116000
     21 H8           4.6240     0.2790    -0.0740 ha         1 83U       0.116000
     22 O1           0.0050    -2.5680     0.9830 o          1 83U      -0.495000
@<TRIPOS>BOND
     1     1     5 1   
     2     1     6 ar  
     3     1    10 ar  
     4     2     7 ar  
     5     2    12 ar  
     6     2    14 1   
     7     3     6 1   
     8     3     7 ar  
     9     3     8 ar  
    10     4     9 ar  
    11     4    13 ar  
    12     4    15 1   
    13     5     7 1   
    14     5    22 2   
    15     6     9 ar  
    16     8    11 ar  
    17     8    16 1   
    18     9    17 1   
    19    10    13 ar  
    20    10    18 1   
    21    11    12 ar  
    22    11    19 1   
    23    12    20 1   
    24    13    21 1   
@<TRIPOS>SUBSTRUCTURE
     1 83U         1 TEMP              0 ****  ****    0 ROOT
