@<TRIPOS>MOLECULE
83U
   22    24     1     0     0
SMALL
abcg2


@<TRIPOS>ATOM
      1 C4           1.2610    -0.4410    -0.1590 ca         1 83U      -0.053500
      2 C7          -2.6030    -0.7000    -0.1560 ca         1 83U      -0.037000
      3 C1          -0.7260     0.8430    -0.0420 cp         1 83U       0.006000
      4 C10          2.9750     1.6770     0.1230 ca         1 83U      -0.086000
      5 S1           0.0090    -1.6940    -0.4020 sx         1 83U       0.305000
      6 C2           0.7370     0.8440    -0.0370 cp         1 83U       0.006000
      7 C3          -1.2470    -0.4440    -0.1680 ca         1 83U      -0.053500
      8 C5          -1.5990     1.9150     0.0820 ca         1 83U      -0.092000
      9 C6           1.6070     1.9170     0.0950 ca         1 83U      -0.092000
     10 C8           2.6180    -0.6950    -0.1370 ca         1 83U      -0.037000
     11 C9          -2.9670     1.6720     0.0990 ca         1 83U      -0.086000
     12 C11         -3.4690     0.3790    -0.0110 ca         1 83U      -0.115000
     13 C12          3.4800     0.3850     0.0160 ca         1 83U      -0.115000
     14 H3          -2.9860    -1.7080    -0.2570 ha         1 83U       0.123000
     15 H6           3.6590     2.5080     0.2310 ha         1 83U       0.115000
     16 H1          -1.2280     2.9280     0.1720 ha         1 83U       0.118000
     17 H2           1.2330     2.9300     0.1830 ha         1 83U       0.118000
     18 H4           3.0030    -1.7020    -0.2360 ha         1 83U       0.123000
     19 H5          -3.6530     2.5020     0.2020 ha         1 83U       0.115000
     20 H7          -4.5370     0.2120     0.0120 ha         1 83U       0.116000
     21 H8           4.5480     0.2190     0.0450 ha         1 83U       0.116000
     22 O1           0.0060    -2.6690     0.7450 o          1 83U      -0.495000
@<TRIPOS>BOND
     1     1     5 1   
     2     1     6 ar  
     3     1    10 ar  
     4     2     7 ar  
     5     2    12 ar  
     6     2    14 1   
     7     3     6 1   
     8     3     7 ar  
     9     3     8 ar  
    10     4     9 ar  
    11     4    13 ar  
    12     4    15 1   
    13     5     7 1   
    14     5    22 2   
    15     6     9 ar  
    16     8    11 ar  
    17     8    16 1   
    18     9    17 1   
    19    10    13 ar  
    20    10    18 1   
    21    11    12 ar  
    22    11    19 1   
    23    12    20 1   
    24    13    21 1   
@<TRIPOS>SUBSTRUCTURE
     1 83U         1 TEMP              0 ****  ****    0 ROOT
