@<TRIPOS>MOLECULE
83W
   80    81     1     0     0
SMALL
No Charge or Current Charge


@<TRIPOS>ATOM
      1 C1          21.2780     5.5430   -27.3180 c          1 83W       0.598100
      2 C10         23.6140     5.2430   -28.2600 c5         1 83W      -0.084400
      3 C11         24.2200     5.3290   -29.6810 c5         1 83W      -0.093400
      4 C12         23.2860     6.3570   -30.3710 c5         1 83W       0.107000
      5 C14         20.6380     7.5570   -31.3310 c3         1 83W       0.049700
      6 C16         18.0220     7.5160   -35.5410 c3         1 83W       0.219000
      7 C17         18.0520     9.0440   -35.8060 c3         1 83W      -0.108100
      8 C18         16.5780     6.9860   -35.6810 c3         1 83W      -0.108100
      9 C19         18.9700     6.7180   -36.4730 c3         1 83W      -0.108100
     10 C2          20.0530     4.4040   -25.4280 c3         1 83W       0.104700
     11 C20         20.4110     8.9100   -30.5830 c3         1 83W       0.157300
     12 C21         21.6200     9.3730   -29.7370 c3         1 83W      -0.120100
     13 C23         19.1320    11.6270   -30.1070 c3         1 83W      -0.105433
     14 C24         17.7110    10.0170   -31.5130 c3         1 83W      -0.105433
     15 C25         19.1260    11.7940   -32.6410 c3         1 83W      -0.105433
     16 C3          18.7620     3.5950   -25.7260 c3         1 83W      -0.069400
     17 C4          17.9650     4.0580   -26.9820 c5         1 83W      -0.158700
     18 C5          17.4400     5.5200   -26.9370 c5         1 83W      -0.090400
     19 C6          16.3230     5.4760   -28.0140 c5         1 83W       0.101000
     20 C7          16.6850     3.2530   -27.2390 c          1 83W       0.562000
     21 C8          20.8250     3.8980   -24.1790 c3         1 83W       0.151600
     22 C9          22.0970     5.1270   -28.5810 c5         1 83W       0.029700
     23 N1          20.9300     4.4130   -26.6070 ns         1 83W      -0.494900
     24 N2          15.7950     4.1320   -27.7930 ns         1 83W      -0.515900
     25 N3          21.9810     6.0700   -29.7280 n          1 83W      -0.394800
     26 N4          19.5530     7.2710   -32.3010 ns         1 83W      -0.485900
     27 O1          20.9590     6.6770   -26.9810 o          1 83W      -0.612100
     28 O2          16.3700     2.1420   -26.8450 o          1 83W      -0.567000
     29 O5          20.5290     8.0890   -34.2060 o          1 83W      -0.546000
     30 O6          18.3630     7.2580   -34.1590 os         1 83W      -0.488100
     31 O7          20.1680     9.9420   -31.5750 os         1 83W      -0.469000
     32 H15         23.9940     4.3880   -27.6880 hc         1 83W       0.064700
     33 H16         23.8390     6.1490   -27.6830 hc         1 83W       0.064700
     34 H17         24.1750     4.3580   -30.1880 hc         1 83W       0.059700
     35 H18         25.2680     5.6500   -29.6790 hc         1 83W       0.059700
     36 H19         23.6080     7.3850   -30.1600 h1         1 83W       0.062200
     37 H20         23.2640     6.2110   -31.4590 h1         1 83W       0.062200
     38 H21         21.5820     7.6180   -31.8820 h1         1 83W       0.099700
     39 H23         19.0740     9.4370   -35.8230 hc         1 83W       0.050367
     40 H24         17.6010     9.2710   -36.7790 hc         1 83W       0.050367
     41 H25         17.4860     9.5830   -35.0370 hc         1 83W       0.050367
     42 H27         16.5320     5.9140   -35.4550 hc         1 83W       0.050367
     43 H28         15.9020     7.5090   -34.9940 hc         1 83W       0.050367
     44 H26         16.2050     7.1350   -36.7020 hc         1 83W       0.050367
     45 H29         19.9730     7.1560   -36.5090 hc         1 83W       0.050367
     46 H30         19.0580     5.6770   -36.1390 hc         1 83W       0.050367
     47 H31         18.5830     6.7130   -37.4980 hc         1 83W       0.050367
     48 H2          19.7500     5.4380   -25.2120 h1         1 83W       0.093700
     49 H32         19.5520     8.7850   -29.9120 h1         1 83W       0.047700
     50 H35         21.8340     8.6600   -28.9340 hc         1 83W       0.052367
     51 H33         22.5150     9.4750   -30.3620 hc         1 83W       0.052367
     52 H34         21.4290    10.3400   -29.2620 hc         1 83W       0.052367
     53 H36         20.0920    12.1520   -30.0400 hc         1 83W       0.043478
     54 H37         18.3360    12.3790   -30.0510 hc         1 83W       0.043478
     55 H38         19.0260    10.9720   -29.2350 hc         1 83W       0.043478
     56 H41         17.5890     9.3460   -30.6560 hc         1 83W       0.043478
     57 H39         16.8470    10.6920   -31.5230 hc         1 83W       0.043478
     58 H40         17.6740     9.4200   -32.4310 hc         1 83W       0.043478
     59 H44         20.0650    12.3590   -32.6130 hc         1 83W       0.043478
     60 H42         19.0930    11.2360   -33.5850 hc         1 83W       0.043478
     61 H43         18.2970    12.5120   -32.6410 hc         1 83W       0.043478
     62 H3          18.1050     3.6440   -24.8490 hc         1 83W       0.065700
     63 H4          19.0340     2.5390   -25.8410 hc         1 83W       0.065700
     64 H5          18.5850     3.9480   -27.8800 hc         1 83W       0.103700
     65 H7          17.0220     5.7650   -25.9540 hc         1 83W       0.064200
     66 H6          18.2100     6.2670   -27.1650 hc         1 83W       0.064200
     67 H9          16.7360     5.5800   -29.0270 h1         1 83W       0.040700
     68 H8          15.5710     6.2610   -27.8610 h1         1 83W       0.040700
     69 H14         21.8190     4.1110   -28.8920 h1         1 83W       0.069700
     70 H1          21.2530     3.5240   -26.9700 hn         1 83W       0.315500
     71 H10         14.8440     3.8260   -27.9650 hn         1 83W       0.323500
     72 H22         18.7030     6.8350   -31.9680 hn         1 83W       0.335500
     73 H11         21.1150     2.8510   -24.3350 h1         1 83W       0.026700
     74 H12         21.7480     4.4850   -24.0750 h1         1 83W       0.026700
     75 H13         20.5770     3.6940   -22.2420 ho         1 83W       0.447000
     76 O3          20.0300     4.0240   -22.9900 oh         1 83W      -0.663000
     77 C13         20.7340     6.3790   -30.3180 c          1 83W       0.602100
     78 C15         19.5720     7.6070   -33.6230 c          1 83W       0.654100
     79 C22         19.0280    10.8340   -31.4340 c3         1 83W       0.184000
     80 O4          19.7330     5.7500   -29.9870 o          1 83W      -0.634100
@<TRIPOS>BOND
     1     1    22 1   
     2     1    23 1   
     3     1    27 2   
     4     2     3 1   
     5     2    22 1   
     6     2    32 1   
     7     2    33 1   
     8     3     4 1   
     9     3    34 1   
    10     3    35 1   
    11     4    25 1   
    12     4    36 1   
    13     4    37 1   
    14     5    11 1   
    15     5    26 1   
    16     5    38 1   
    17     5    77 1   
    18     6     7 1   
    19     6     8 1   
    20     6     9 1   
    21     6    30 1   
    22     7    39 1   
    23     7    40 1   
    24     7    41 1   
    25     8    42 1   
    26     8    43 1   
    27     8    44 1   
    28     9    45 1   
    29     9    46 1   
    30     9    47 1   
    31    10    16 1   
    32    10    21 1   
    33    10    23 1   
    34    10    48 1   
    35    11    12 1   
    36    11    31 1   
    37    11    49 1   
    38    12    50 1   
    39    12    51 1   
    40    12    52 1   
    41    13    53 1   
    42    13    54 1   
    43    13    55 1   
    44    13    79 1   
    45    14    56 1   
    46    14    57 1   
    47    14    58 1   
    48    14    79 1   
    49    15    59 1   
    50    15    60 1   
    51    15    61 1   
    52    15    79 1   
    53    16    17 1   
    54    16    62 1   
    55    16    63 1   
    56    17    18 1   
    57    17    20 1   
    58    17    64 1   
    59    18    19 1   
    60    18    65 1   
    61    18    66 1   
    62    19    24 1   
    63    19    67 1   
    64    19    68 1   
    65    20    24 1   
    66    20    28 2   
    67    21    73 1   
    68    21    74 1   
    69    21    76 1   
    70    22    25 1   
    71    22    69 1   
    72    23    70 1   
    73    24    71 1   
    74    25    77 1   
    75    26    72 1   
    76    26    78 1   
    77    29    78 2   
    78    30    78 1   
    79    31    79 1   
    80    75    76 1   
    81    77    80 2   
@<TRIPOS>SUBSTRUCTURE
     1 83W         1 TEMP              0 ****  ****    0 ROOT
