@<TRIPOS>MOLECULE
83W
   80    81     1     0     0
SMALL
abcg2


@<TRIPOS>ATOM
      1 C1          21.6250     5.2650   -27.5390 c          1 83W       0.598100
      2 C10         23.8800     4.9390   -28.6600 c5         1 83W      -0.084400
      3 C11         24.3980     5.5030   -29.9850 c5         1 83W      -0.093400
      4 C12         23.3570     6.5600   -30.3390 c5         1 83W       0.107000
      5 C14         20.5840     7.3700   -31.1980 c3         1 83W       0.049700
      6 C16         18.4600     7.2950   -35.6100 c3         1 83W       0.219000
      7 C17         18.4210     8.8080   -35.7950 c3         1 83W      -0.108100
      8 C18         17.0910     6.6890   -35.8930 c3         1 83W      -0.108100
      9 C19         19.5300     6.6280   -36.4670 c3         1 83W      -0.108100
     10 C2          20.1780     4.3840   -25.7400 c3         1 83W       0.104700
     11 C20         19.9720     8.5290   -30.3650 c3         1 83W       0.157300
     12 C21         20.9530     9.0480   -29.3230 c3         1 83W      -0.120100
     13 C23         18.0480    10.7510   -29.8090 c3         1 83W      -0.105433
     14 C24         17.2150     9.1100   -31.5270 c3         1 83W      -0.105433
     15 C25         18.3170    11.2370   -32.2530 c3         1 83W      -0.105433
     16 C3          18.6850     4.2310   -26.0420 c3         1 83W      -0.069400
     17 C4          18.1630     5.2660   -27.0270 c5         1 83W      -0.158700
     18 C5          18.1590     6.7240   -26.5430 c5         1 83W      -0.090400
     19 C6          16.9910     7.3660   -27.3060 c5         1 83W       0.101000
     20 C7          16.7150     5.0270   -27.4430 c          1 83W       0.562000
     21 C8          20.6710     3.3710   -24.7120 c3         1 83W       0.151600
     22 C9          22.3520     4.9190   -28.8410 c5         1 83W       0.029700
     23 N1          20.9740     4.2460   -26.9530 ns         1 83W      -0.494900
     24 N2          16.1110     6.2270   -27.5440 ns         1 83W      -0.515900
     25 N3          22.1080     5.9520   -29.8560 n          1 83W      -0.394800
     26 N4          19.6830     6.9210   -32.2330 ns         1 83W      -0.485900
     27 O1          21.6930     6.3980   -27.0670 o          1 83W      -0.612100
     28 O2          16.1920     3.9380   -27.6760 o          1 83W      -0.567000
     29 O5          20.7230     7.9440   -33.9910 o          1 83W      -0.546000
     30 O6          18.6660     6.9650   -34.1890 os         1 83W      -0.488100
     31 O7          19.6190     9.5600   -31.2750 os         1 83W      -0.469000
     32 H15         24.2670     3.9490   -28.4280 hc         1 83W       0.064700
     33 H16         24.1390     5.6140   -27.8430 hc         1 83W       0.064700
     34 H17         24.4100     4.7260   -30.7520 hc         1 83W       0.059700
     35 H18         25.3990     5.9250   -29.9030 hc         1 83W       0.059700
     36 H19         23.5520     7.4980   -29.8130 h1         1 83W       0.062200
     37 H20         23.3020     6.7600   -31.4060 h1         1 83W       0.062200
     38 H21         21.4840     7.7360   -31.6820 h1         1 83W       0.099700
     39 H23         19.3920     9.2580   -35.6000 hc         1 83W       0.050367
     40 H24         18.1310     9.0330   -36.8230 hc         1 83W       0.050367
     41 H25         17.6830     9.2510   -35.1250 hc         1 83W       0.050367
     42 H27         17.1050     5.6120   -35.7190 hc         1 83W       0.050367
     43 H28         16.3340     7.1390   -35.2490 hc         1 83W       0.050367
     44 H26         16.8160     6.8700   -36.9320 hc         1 83W       0.050367
     45 H29         20.5110     7.0580   -36.2810 hc         1 83W       0.050367
     46 H30         19.5650     5.5560   -36.2600 hc         1 83W       0.050367
     47 H31         19.2800     6.7640   -37.5200 hc         1 83W       0.050367
     48 H2          20.3770     5.3850   -25.3580 h1         1 83W       0.093700
     49 H32         19.0820     8.1340   -29.8720 h1         1 83W       0.047700
     50 H35         21.2420     8.2620   -28.6240 hc         1 83W       0.052367
     51 H33         21.8500     9.4300   -29.8130 hc         1 83W       0.052367
     52 H34         20.4990     9.8590   -28.7560 hc         1 83W       0.052367
     53 H36         18.8150    11.4900   -29.5750 hc         1 83W       0.043478
     54 H37         17.0740    11.2430   -29.7920 hc         1 83W       0.043478
     55 H38         18.0480     9.9880   -29.0300 hc         1 83W       0.043478
     56 H41         17.1990     8.2910   -30.8070 hc         1 83W       0.043478
     57 H39         16.2340     9.5870   -31.5070 hc         1 83W       0.043478
     58 H40         17.3780     8.6970   -32.5210 hc         1 83W       0.043478
     59 H44         19.0930    11.9690   -32.0240 hc         1 83W       0.043478
     60 H42         18.5210    10.8060   -33.2340 hc         1 83W       0.043478
     61 H43         17.3550    11.7490   -32.2920 hc         1 83W       0.043478
     62 H3          18.1360     4.3010   -25.1020 hc         1 83W       0.065700
     63 H4          18.5090     3.2290   -26.4440 hc         1 83W       0.065700
     64 H5          18.7390     5.1990   -27.9550 hc         1 83W       0.103700
     65 H7          17.9590     6.7540   -25.4690 hc         1 83W       0.064200
     66 H6          19.1010     7.2340   -26.7290 hc         1 83W       0.064200
     67 H9          17.3190     7.8030   -28.2530 h1         1 83W       0.040700
     68 H8          16.4810     8.1390   -26.7310 h1         1 83W       0.040700
     69 H14         22.0110     3.9530   -29.2180 h1         1 83W       0.069700
     70 H1          20.8970     3.3790   -27.4650 hn         1 83W       0.315500
     71 H10         15.1870     6.3190   -27.9400 hn         1 83W       0.323500
     72 H22         18.8230     6.4850   -31.9410 hn         1 83W       0.335500
     73 H11         20.4880     2.3540   -25.0800 h1         1 83W       0.026700
     74 H12         21.7500     3.5000   -24.5760 h1         1 83W       0.026700
     75 H13         20.2520     2.9280   -22.8530 ho         1 83W       0.447000
     76 O3          19.9750     3.5990   -23.4880 oh         1 83W      -0.663000
     77 C13         20.8560     6.1930   -30.2660 c          1 83W       0.602100
     78 C15         19.7730     7.3410   -33.5170 c          1 83W       0.654100
     79 C22         18.2920    10.1430   -31.1920 c3         1 83W       0.184000
     80 O4          19.8990     5.5180   -29.8690 o          1 83W      -0.634100
@<TRIPOS>BOND
     1     1    22 1   
     2     1    23 1   
     3     1    27 2   
     4     2     3 1   
     5     2    22 1   
     6     2    32 1   
     7     2    33 1   
     8     3     4 1   
     9     3    34 1   
    10     3    35 1   
    11     4    25 1   
    12     4    36 1   
    13     4    37 1   
    14     5    11 1   
    15     5    26 1   
    16     5    38 1   
    17     5    77 1   
    18     6     7 1   
    19     6     8 1   
    20     6     9 1   
    21     6    30 1   
    22     7    39 1   
    23     7    40 1   
    24     7    41 1   
    25     8    42 1   
    26     8    43 1   
    27     8    44 1   
    28     9    45 1   
    29     9    46 1   
    30     9    47 1   
    31    10    16 1   
    32    10    21 1   
    33    10    23 1   
    34    10    48 1   
    35    11    12 1   
    36    11    31 1   
    37    11    49 1   
    38    12    50 1   
    39    12    51 1   
    40    12    52 1   
    41    13    53 1   
    42    13    54 1   
    43    13    55 1   
    44    13    79 1   
    45    14    56 1   
    46    14    57 1   
    47    14    58 1   
    48    14    79 1   
    49    15    59 1   
    50    15    60 1   
    51    15    61 1   
    52    15    79 1   
    53    16    17 1   
    54    16    62 1   
    55    16    63 1   
    56    17    18 1   
    57    17    20 1   
    58    17    64 1   
    59    18    19 1   
    60    18    65 1   
    61    18    66 1   
    62    19    24 1   
    63    19    67 1   
    64    19    68 1   
    65    20    24 1   
    66    20    28 2   
    67    21    73 1   
    68    21    74 1   
    69    21    76 1   
    70    22    25 1   
    71    22    69 1   
    72    23    70 1   
    73    24    71 1   
    74    25    77 1   
    75    26    72 1   
    76    26    78 1   
    77    29    78 2   
    78    30    78 1   
    79    31    79 1   
    80    75    76 1   
    81    77    80 2   
@<TRIPOS>SUBSTRUCTURE
     1 83W         1 TEMP              0 ****  ****    0 ROOT
