@<TRIPOS>MOLECULE
83X
   20    20     1     0     0
SMALL
bcc


@<TRIPOS>ATOM
      1 C1          -0.6720    -0.0850    -0.0690 ca         1 83X      -0.279600
      2 C2           0.0370    -1.2700    -0.2970 ca         1 83X       0.243600
      3 C3           1.4250    -1.2890    -0.3100 ca         1 83X      -0.339500
      4 C4           2.1230    -0.1010    -0.1190 ca         1 83X       0.234100
      5 C5           1.4470     1.0970     0.0880 ca         1 83X      -0.339500
      6 C6           0.0570     1.0920     0.1140 ca         1 83X       0.243600
      7 O1          -0.6830    -2.3900    -0.4640 oh         1 83X      -0.482100
      8 O2          -0.6490     2.2230     0.2810 oh         1 83X      -0.482100
      9 O3           3.4630    -0.1660    -0.1480 oh         1 83X      -0.487100
     10 O4          -2.7960    -0.4430    -1.0260 o          1 83X      -0.509100
     11 C7          -2.1660    -0.0920    -0.0540 c          1 83X       0.618700
     12 C8          -2.8340     0.2580     1.2440 c3         1 83X      -0.188100
     13 H1           1.9660    -2.2150    -0.4700 ha         1 83X       0.145000
     14 H2           1.9950     2.0250     0.2180 ha         1 83X       0.145000
     15 H3          -0.1010    -3.1520    -0.5630 ho         1 83X       0.433000
     16 H4          -0.0630     2.9750     0.4240 ho         1 83X       0.433000
     17 H5           3.8480     0.7030     0.0140 ho         1 83X       0.431000
     18 H6          -2.7120    -0.5940     1.9200 hc         1 83X       0.060367
     19 H7          -2.3730     1.1120     1.7330 hc         1 83X       0.060367
     20 H8          -3.9000     0.4400     1.1110 hc         1 83X       0.060367
@<TRIPOS>BOND
     1     1     2 ar  
     2     1     6 ar  
     3     1    11 1   
     4     2     3 ar  
     5     2     7 1   
     6     3     4 ar  
     7     3    13 1   
     8     4     5 ar  
     9     4     9 1   
    10     5     6 ar  
    11     5    14 1   
    12     6     8 1   
    13     7    15 1   
    14     8    16 1   
    15     9    17 1   
    16    10    11 2   
    17    11    12 1   
    18    12    18 1   
    19    12    19 1   
    20    12    20 1   
@<TRIPOS>SUBSTRUCTURE
     1 83X         1 TEMP              0 ****  ****    0 ROOT
