@<TRIPOS>MOLECULE
83X
   20    20     1     0     0
SMALL
No Charge or Current Charge


@<TRIPOS>ATOM
      1 C1          -0.6840    -0.0160    -0.0990 ca         1 83X      -0.279600
      2 C2          -0.0260    -1.2450    -0.2330 ca         1 83X       0.243600
      3 C3           1.3720    -1.2990    -0.2350 ca         1 83X      -0.321500
      4 C4           2.1130    -0.1230    -0.1020 ca         1 83X       0.234100
      5 C5           1.4650     1.1080     0.0370 ca         1 83X      -0.321500
      6 C6           0.0660     1.1590     0.0390 ca         1 83X       0.243600
      7 O1          -0.7370    -2.3970    -0.3510 oh         1 83X      -0.521100
      8 O2          -0.5580     2.3580     0.1750 oh         1 83X      -0.521100
      9 O3           3.4680    -0.1820    -0.1040 oh         1 83X      -0.526100
     10 O4          -2.8070     0.0680    -1.1410 o          1 83X      -0.509100
     11 C7          -2.1720     0.0390    -0.0940 c          1 83X       0.618700
     12 C8          -2.8750     0.0590     1.2610 c3         1 83X      -0.188100
     13 H1           1.8900    -2.2480    -0.3380 ha         1 83X       0.127000
     14 H2           2.0450     2.0210     0.1430 ha         1 83X       0.127000
     15 H3          -0.0980    -3.1350    -0.4410 ho         1 83X       0.472000
     16 H4           0.1330     3.0500     0.2460 ho         1 83X       0.472000
     17 H5           3.8090     0.7300    -0.0010 ho         1 83X       0.470000
     18 H6          -2.5420    -0.8090     1.8410 hc         1 83X       0.060367
     19 H7          -2.4830     0.8930     1.8520 hc         1 83X       0.060367
     20 H8          -3.9660     0.0970     1.1730 hc         1 83X       0.060367
@<TRIPOS>BOND
     1     1     2 ar  
     2     1     6 ar  
     3     1    11 1   
     4     2     3 ar  
     5     2     7 1   
     6     3     4 ar  
     7     3    13 1   
     8     4     5 ar  
     9     4     9 1   
    10     5     6 ar  
    11     5    14 1   
    12     6     8 1   
    13     7    15 1   
    14     8    16 1   
    15     9    17 1   
    16    10    11 2   
    17    11    12 1   
    18    12    18 1   
    19    12    19 1   
    20    12    20 1   
@<TRIPOS>SUBSTRUCTURE
     1 83X         1 TEMP              0 ****  ****    0 ROOT
