@<TRIPOS>MOLECULE
83Y
   26    26     1     0     0
SMALL
abcg2


@<TRIPOS>ATOM
      1 C1          -1.9620     1.5830     0.2290 c6         1 83Y       0.345300
      2 C2          -0.6000     1.3560    -0.4310 c6         1 83Y       0.127300
      3 C3          -0.0650    -0.0160    -0.0380 c6         1 83Y       0.248300
      4 C4          -1.0800    -1.1010    -0.3670 c6         1 83Y       0.138300
      5 C5          -2.4260    -0.7540     0.2870 c6         1 83Y       0.134300
      6 C6          -3.5270    -1.7150    -0.1160 c3         1 83Y      -0.087100
      7 O1          -1.7490     1.7200     1.5990 oh         1 83Y      -0.662000
      8 O1S          3.5070    -0.3990    -1.0180 o          1 83Y      -0.709200
      9 O2          -0.7280     1.3870    -1.8310 oh         1 83Y      -0.685000
     10 O2S          2.5780     1.2720     0.5390 o          1 83Y      -0.709200
     11 O3           1.1380    -0.2930    -0.7420 os         1 83Y      -0.575700
     12 O3S          2.5460    -1.1030     1.1360 o          1 83Y      -0.709200
     13 O5          -2.8510     0.5500    -0.0860 os         1 83Y      -0.491000
     14 S            2.5600    -0.1130     0.0570 s6         1 83Y       1.497300
     15 O4          -0.5920    -2.3240     0.1290 oh         1 83Y      -0.686000
     16 H1          -2.4260     2.4860    -0.1890 h2         1 83Y       0.041700
     17 H2           0.0950     2.1270    -0.0770 h1         1 83Y       0.087700
     18 H3           0.1030    -0.0290     1.0450 h1         1 83Y       0.075700
     19 H4          -1.2190    -1.1440    -1.4560 h1         1 83Y       0.059700
     20 H5          -2.2910    -0.8110     1.3760 h1         1 83Y       0.051700
     21 H63         -3.2980    -2.7270     0.2150 hc         1 83Y       0.034700
     22 H62         -4.4730    -1.4320     0.3460 hc         1 83Y       0.034700
     23 H61         -3.6650    -1.7310    -1.1980 hc         1 83Y       0.034700
     24 H6          -2.5710     1.9990     2.0180 ho         1 83Y       0.439000
     25 HO2         -0.9450     2.2850    -2.0980 ho         1 83Y       0.481000
     26 H7          -0.9860    -3.0380    -0.3780 ho         1 83Y       0.485000
@<TRIPOS>BOND
     1     1     2 1   
     2     1     7 1   
     3     1    13 1   
     4     1    16 1   
     5     2     3 1   
     6     2     9 1   
     7     2    17 1   
     8     3     4 1   
     9     3    11 1   
    10     3    18 1   
    11     4     5 1   
    12     4    15 1   
    13     4    19 1   
    14     5     6 1   
    15     5    13 1   
    16     5    20 1   
    17     6    21 1   
    18     6    22 1   
    19     6    23 1   
    20     7    24 1   
    21     8    14 1   
    22     9    25 1   
    23    10    14 1   
    24    11    14 1   
    25    12    14 1   
    26    15    26 1   
@<TRIPOS>SUBSTRUCTURE
     1 83Y         1 TEMP              0 ****  ****    0 ROOT
