@<TRIPOS>MOLECULE
83Y
   26    26     1     0     0
SMALL
No Charge or Current Charge


@<TRIPOS>ATOM
      1 C1          -1.9440     1.6470     0.2200 c6         1 83Y       0.345300
      2 C2          -0.6040     1.3560    -0.5480 c6         1 83Y       0.127300
      3 C3          -0.0680    -0.0470    -0.0970 c6         1 83Y       0.248300
      4 C4          -1.1690    -1.1210    -0.3770 c6         1 83Y       0.138300
      5 C5          -2.4880    -0.7320     0.3630 c6         1 83Y       0.134300
      6 C6          -3.6710    -1.6760     0.0270 c3         1 83Y      -0.087100
      7 O1          -1.7550     1.7300     1.6280 oh         1 83Y      -0.662000
      8 O1S          3.5810    -0.4850    -1.0380 o          1 83Y      -0.709200
      9 O2          -0.7810     1.4200    -1.9940 oh         1 83Y      -0.685000
     10 O2S          2.5320     1.0660     0.5780 o          1 83Y      -0.709200
     11 O3           1.1440    -0.4200    -0.7990 os         1 83Y      -0.575700
     12 O3S          2.4940    -1.3650     0.9980 o          1 83Y      -0.709200
     13 O5          -2.9080     0.6040    -0.0210 os         1 83Y      -0.491000
     14 S            2.5650    -0.2860     0.0040 s6         1 83Y       1.497300
     15 O4          -0.7040    -2.4360     0.0010 oh         1 83Y      -0.686000
     16 H1          -2.3580     2.6020    -0.1400 h2         1 83Y       0.041700
     17 H2           0.1290     2.1120    -0.2290 h1         1 83Y       0.087700
     18 H3           0.1170    -0.0300     0.9890 h1         1 83Y       0.075700
     19 H4          -1.3780    -1.1130    -1.4570 h1         1 83Y       0.059700
     20 H5          -2.3230    -0.7640     1.4510 h1         1 83Y       0.051700
     21 H63         -3.4640    -2.7030     0.3510 hc         1 83Y       0.034700
     22 H62         -4.5880    -1.3520     0.5340 hc         1 83Y       0.034700
     23 H61         -3.8700    -1.6980    -1.0510 hc         1 83Y       0.034700
     24 H6          -2.6570     1.8230     1.9990 ho         1 83Y       0.439000
     25 HO2         -1.0160     2.3480    -2.2210 ho         1 83Y       0.481000
     26 H7           0.2560    -2.4460    -0.2200 ho         1 83Y       0.485000
@<TRIPOS>BOND
     1     1     2 1   
     2     1     7 1   
     3     1    13 1   
     4     1    16 1   
     5     2     3 1   
     6     2     9 1   
     7     2    17 1   
     8     3     4 1   
     9     3    11 1   
    10     3    18 1   
    11     4     5 1   
    12     4    15 1   
    13     4    19 1   
    14     5     6 1   
    15     5    13 1   
    16     5    20 1   
    17     6    21 1   
    18     6    22 1   
    19     6    23 1   
    20     7    24 1   
    21     8    14 1   
    22     9    25 1   
    23    10    14 1   
    24    11    14 1   
    25    12    14 1   
    26    15    26 1   
@<TRIPOS>SUBSTRUCTURE
     1 83Y         1 TEMP              0 ****  ****    0 ROOT
