@<TRIPOS>MOLECULE
83Z
   68    69     1     0     0
SMALL
No Charge or Current Charge


@<TRIPOS>ATOM
      1 C19         -2.3520   -40.5860    21.0110 c2         1 83Z      -0.190200
      2 C22         -2.2440   -43.0620    21.6590 c3         1 83Z       0.188300
      3 C01          2.3610   -41.5610    17.3370 c3         1 83Z      -0.056900
      4 C02          3.3600   -41.5470    18.4880 c2         1 83Z      -0.100400
      5 C03          4.4550   -40.5060    18.3030 c3         1 83Z      -0.002900
      6 C04          3.8980   -39.0910    18.1700 ca         1 83Z      -0.018300
      7 C05          4.1420   -38.3380    17.0070 ca         1 83Z      -0.201000
      8 C06          3.6240   -37.0310    16.8800 ca         1 83Z       0.170100
      9 C08          4.6270   -36.7300    14.6380 c3         1 83Z       0.146900
     10 C09          2.8470   -36.4870    17.9260 ca         1 83Z       0.043000
     11 C11          2.5760   -37.2450    19.0840 ca         1 83Z       0.004000
     12 C13          0.9280   -37.2120    21.0440 c          1 83Z       0.615100
     13 C14          0.2250   -38.5330    20.7050 c3         1 83Z      -0.202400
     14 C15         -1.2940   -38.3360    20.5390 c3         1 83Z       0.232500
     15 C17         -1.9780   -39.6380    20.1240 c2         1 83Z      -0.133400
     16 C18         -2.1010   -39.7560    18.6080 c3         1 83Z      -0.057900
     17 C20         -2.8840   -41.9880    20.7230 c3         1 83Z      -0.063500
     18 C21         -4.4290   -41.9920    20.7770 c3         1 83Z      -0.088100
     19 C24         -0.7180   -42.8890    21.7930 c3         1 83Z      -0.179400
     20 C25         -0.0160   -44.1150    22.3890 c          1 83Z       0.554100
     21 C28          3.1250   -38.5380    19.2070 ca         1 83Z      -0.156000
     22 C29          3.2760   -42.3260    19.5930 ce         1 83Z      -0.181000
     23 C30          2.1930   -43.2760    19.8790 ce         1 83Z      -0.176000
     24 C31          2.1130   -43.9880    21.0230 c2         1 83Z      -0.200200
     25 C32          0.9470   -44.8760    21.4210 c3         1 83Z       0.107500
     26 N12          1.8090   -36.6630    20.1270 ns         1 83Z      -0.155000
     27 O07          3.8520   -36.2590    15.7550 os         1 83Z      -0.322100
     28 O16         -1.8450   -37.8530    21.7680 oh         1 83Z      -0.671000
     29 O23         -2.5090   -44.3660    21.1310 oh         1 83Z      -0.666000
     30 O26         -0.1530   -44.4080    23.5740 o          1 83Z      -0.498100
     31 O27          0.6530   -36.6200    22.0810 o          1 83Z      -0.612100
     32 O33          1.5180   -46.0760    21.9980 os         1 83Z      -0.429000
     33 Cl1          2.1930   -34.8490    17.7750 cl         1 83Z      -0.167000
     34 H1          -2.2200   -40.3900    22.0770 ha         1 83Z       0.197000
     35 H2          -2.6850   -42.9680    22.6620 h1         1 83Z       0.051700
     36 H3           2.0030   -42.5740    17.1200 hc         1 83Z       0.043367
     37 H4           1.4910   -40.9360    17.5670 hc         1 83Z       0.043367
     38 H5           2.8050   -41.1830    16.4080 hc         1 83Z       0.043367
     39 H6           5.0580   -40.7660    17.4250 hc         1 83Z       0.059700
     40 H7           5.1530   -40.5340    19.1490 hc         1 83Z       0.059700
     41 H8           4.7370   -38.7800    16.2140 ha         1 83Z       0.124000
     42 H9           4.6790   -35.9580    13.8600 h1         1 83Z       0.046367
     43 H10          5.6520   -36.9690    14.9480 h1         1 83Z       0.046367
     44 H11          4.1720   -37.6260    14.1970 h1         1 83Z       0.046367
     45 H12          0.4050   -39.2440    21.5190 hc         1 83Z       0.077700
     46 H13          0.6170   -38.9610    19.7780 hc         1 83Z       0.077700
     47 H14         -1.4510   -37.5820    19.7550 h1         1 83Z       0.038700
     48 H16         -2.6720   -40.6330    18.2880 hc         1 83Z       0.039367
     49 H17         -2.6170   -38.8840    18.1890 hc         1 83Z       0.039367
     50 H18         -2.6000   -42.2720    19.7040 hc         1 83Z       0.058700
     51 H19         -4.8360   -42.9660    20.4800 hc         1 83Z       0.038367
     52 H20         -4.7840   -41.7620    21.7890 hc         1 83Z       0.038367
     53 H21         -4.8360   -41.2370    20.0930 hc         1 83Z       0.038367
     54 H22         -0.5140   -42.0340    22.4470 hc         1 83Z       0.071700
     55 H24          2.9600   -39.1200    20.1110 ha         1 83Z       0.131000
     56 H25          4.0380   -42.2310    20.3690 ha         1 83Z       0.174000
     57 H27          1.3900   -43.3560    19.1440 ha         1 83Z       0.171000
     58 H28          2.8910   -43.9090    21.7840 ha         1 83Z       0.192000
     59 H30          0.3700   -45.1250    20.5210 h1         1 83Z       0.054700
     60 H31          1.1320   -48.0570    22.5490 h1         1 83Z       0.035700
     61 H32         -0.2380   -46.9480    22.7630 h1         1 83Z       0.035700
     62 H33          0.2270   -47.4850    21.1310 h1         1 83Z       0.035700
     63 H34          2.0640   -35.7060    20.3320 hn         1 83Z       0.171000
     64 H35         -1.1650   -37.2440    22.1470 ho         1 83Z       0.483000
     65 H36         -3.4850   -44.4620    21.0830 ho         1 83Z       0.448000
     66 H15         -1.1140   -39.8150    18.1350 hc         1 83Z       0.039367
     67 H23         -0.3140   -42.6830    20.7970 hc         1 83Z       0.071700
     68 C34          0.6140   -47.1920    22.1150 c3         1 83Z       0.143900
@<TRIPOS>BOND
     1     1    15 2   
     2     1    17 1   
     3     1    34 1   
     4     2    17 1   
     5     2    19 1   
     6     2    29 1   
     7     2    35 1   
     8     3     4 1   
     9     3    36 1   
    10     3    37 1   
    11     3    38 1   
    12     4     5 1   
    13     4    22 2   
    14     5     6 1   
    15     5    39 1   
    16     5    40 1   
    17     6     7 ar  
    18     6    21 ar  
    19     7     8 ar  
    20     7    41 1   
    21     8    10 ar  
    22     8    27 1   
    23     9    27 1   
    24     9    42 1   
    25     9    43 1   
    26     9    44 1   
    27    10    11 ar  
    28    10    33 1   
    29    11    21 ar  
    30    11    26 1   
    31    12    13 1   
    32    12    26 1   
    33    12    31 2   
    34    13    14 1   
    35    13    45 1   
    36    13    46 1   
    37    14    15 1   
    38    14    28 1   
    39    14    47 1   
    40    15    16 1   
    41    16    48 1   
    42    16    49 1   
    43    16    66 1   
    44    17    18 1   
    45    17    50 1   
    46    18    51 1   
    47    18    52 1   
    48    18    53 1   
    49    19    20 1   
    50    19    54 1   
    51    19    67 1   
    52    20    25 1   
    53    20    30 2   
    54    21    55 1   
    55    22    23 1   
    56    22    56 1   
    57    23    24 2   
    58    23    57 1   
    59    24    25 1   
    60    24    58 1   
    61    25    32 1   
    62    25    59 1   
    63    26    63 1   
    64    28    64 1   
    65    29    65 1   
    66    32    68 1   
    67    60    68 1   
    68    61    68 1   
    69    62    68 1   
@<TRIPOS>SUBSTRUCTURE
     1 83Z         1 TEMP              0 ****  ****    0 ROOT
