@<TRIPOS>MOLECULE
83Z
   68    69     1     0     0
SMALL
abcg2


@<TRIPOS>ATOM
      1 C19         -2.4870   -40.5840    21.0420 c2         1 83Z      -0.190200
      2 C22         -2.3730   -43.0050    21.5810 c3         1 83Z       0.188300
      3 C01          2.5590   -41.5880    17.2440 c3         1 83Z      -0.056900
      4 C02          3.3860   -41.4750    18.4860 c2         1 83Z      -0.100400
      5 C03          4.4750   -40.4350    18.4360 c3         1 83Z      -0.002900
      6 C04          3.9140   -39.0440    18.2780 ca         1 83Z      -0.018300
      7 C05          4.1030   -38.3340    17.0990 ca         1 83Z      -0.201000
      8 C06          3.5710   -37.0560    16.9440 ca         1 83Z       0.170100
      9 C08          4.4460   -36.8220    14.7550 c3         1 83Z       0.146900
     10 C09          2.8240   -36.5070    17.9900 ca         1 83Z       0.043000
     11 C11          2.6380   -37.2080    19.1780 ca         1 83Z       0.004000
     12 C13          0.8310   -37.0650    20.8750 c          1 83Z       0.615100
     13 C14          0.2550   -38.4040    20.4740 c3         1 83Z      -0.202400
     14 C15         -1.2730   -38.4560    20.6630 c3         1 83Z       0.232500
     15 C17         -1.8100   -39.7940    20.2060 c2         1 83Z      -0.133400
     16 C18         -1.5170   -40.1310    18.7710 c3         1 83Z      -0.057900
     17 C20         -3.0970   -41.9240    20.7570 c3         1 83Z      -0.063500
     18 C21         -4.5900   -41.8800    21.0910 c3         1 83Z      -0.088100
     19 C24         -0.9140   -43.1100    21.1740 c3         1 83Z      -0.179400
     20 C25         -0.1340   -44.1040    21.9980 c          1 83Z       0.554100
     21 C28          3.2000   -38.4710    19.3210 ca         1 83Z      -0.156000
     22 C29          3.2100   -42.2000    19.6010 ce         1 83Z      -0.181000
     23 C30          2.2110   -43.2290    19.8160 ce         1 83Z      -0.176000
     24 C31          2.0580   -43.8670    20.9800 c2         1 83Z      -0.200200
     25 C32          0.9700   -44.8620    21.2500 c3         1 83Z       0.107500
     26 N12          1.9270   -36.6040    20.2280 ns         1 83Z      -0.155000
     27 O07          3.7080   -36.3040    15.8480 os         1 83Z      -0.322100
     28 O16         -1.6430   -38.2050    21.9890 oh         1 83Z      -0.671000
     29 O23         -2.9380   -44.2870    21.3950 oh         1 83Z      -0.666000
     30 O26         -0.3100   -44.2580    23.1820 o          1 83Z      -0.498100
     31 O27          0.3260   -36.3870    21.7640 o          1 83Z      -0.612100
     32 O33          1.4990   -45.9150    21.9980 os         1 83Z      -0.429000
     33 CL1          2.1240   -34.9440    17.7850 cl         1 83Z      -0.167000
     34 H1          -2.6320   -40.2420    22.0620 ha         1 83Z       0.197000
     35 H2          -2.4270   -42.7120    22.6400 h1         1 83Z       0.051700
     36 H3           1.8580   -42.4180    17.2610 hc         1 83Z       0.043367
     37 H4           1.9840   -40.6730    17.0810 hc         1 83Z       0.043367
     38 H5           3.2020   -41.7080    16.3690 hc         1 83Z       0.043367
     39 H6           5.1450   -40.6490    17.5970 hc         1 83Z       0.059700
     40 H7           5.0770   -40.4860    19.3460 hc         1 83Z       0.059700
     41 H8           4.6730   -38.7900    16.3010 ha         1 83Z       0.124000
     42 H9           4.4280   -36.0550    13.9850 h1         1 83Z       0.046367
     43 H10          5.4840   -37.0270    15.0270 h1         1 83Z       0.046367
     44 H11          3.9950   -37.7340    14.3570 h1         1 83Z       0.046367
     45 H12          0.7210   -39.1810    21.0880 hc         1 83Z       0.077700
     46 H13          0.5080   -38.6340    19.4390 hc         1 83Z       0.077700
     47 H14         -1.7040   -37.6970    19.9870 h1         1 83Z       0.038700
     48 H16         -2.2390   -40.8270    18.3500 hc         1 83Z       0.039367
     49 H17         -1.5220   -39.2350    18.1480 hc         1 83Z       0.039367
     50 H18         -2.9850   -42.1870    19.7000 hc         1 83Z       0.058700
     51 H19         -5.0910   -42.8200    20.8580 hc         1 83Z       0.038367
     52 H20         -4.7480   -41.6620    22.1500 hc         1 83Z       0.038367
     53 H21         -5.0880   -41.1000    20.5150 hc         1 83Z       0.038367
     54 H22         -0.4320   -42.1350    21.2940 hc         1 83Z       0.071700
     55 H24          3.0820   -39.0040    20.2560 ha         1 83Z       0.131000
     56 H25          3.8700   -42.0040    20.4420 ha         1 83Z       0.174000
     57 H27          1.5480   -43.4820    18.9940 ha         1 83Z       0.171000
     58 H28          2.6970   -43.6230    21.8250 ha         1 83Z       0.192000
     59 H30          0.5460   -45.2150    20.2960 h1         1 83Z       0.054700
     60 H31          1.2040   -47.8160    22.6230 h1         1 83Z       0.035700
     61 H32         -0.2900   -46.8770    22.5120 h1         1 83Z       0.035700
     62 H33          0.4990   -47.4640    21.0360 h1         1 83Z       0.035700
     63 H34          2.2080   -35.6670    20.4900 hn         1 83Z       0.171000
     64 H35         -1.1520   -37.4110    22.2520 ho         1 83Z       0.483000
     65 H36         -3.7570   -44.3400    21.8940 ho         1 83Z       0.448000
     66 H15         -0.5290   -40.5870    18.6610 hc         1 83Z       0.039367
     67 H23         -0.8370   -43.3490    20.1100 hc         1 83Z       0.071700
     68 C34          0.6790   -47.0610    22.0390 c3         1 83Z       0.143900
@<TRIPOS>BOND
     1     1    15 2   
     2     1    17 1   
     3     1    34 1   
     4     2    17 1   
     5     2    19 1   
     6     2    29 1   
     7     2    35 1   
     8     3     4 1   
     9     3    36 1   
    10     3    37 1   
    11     3    38 1   
    12     4     5 1   
    13     4    22 2   
    14     5     6 1   
    15     5    39 1   
    16     5    40 1   
    17     6     7 ar  
    18     6    21 ar  
    19     7     8 ar  
    20     7    41 1   
    21     8    10 ar  
    22     8    27 1   
    23     9    27 1   
    24     9    42 1   
    25     9    43 1   
    26     9    44 1   
    27    10    11 ar  
    28    10    33 1   
    29    11    21 ar  
    30    11    26 1   
    31    12    13 1   
    32    12    26 1   
    33    12    31 2   
    34    13    14 1   
    35    13    45 1   
    36    13    46 1   
    37    14    15 1   
    38    14    28 1   
    39    14    47 1   
    40    15    16 1   
    41    16    48 1   
    42    16    49 1   
    43    16    66 1   
    44    17    18 1   
    45    17    50 1   
    46    18    51 1   
    47    18    52 1   
    48    18    53 1   
    49    19    20 1   
    50    19    54 1   
    51    19    67 1   
    52    20    25 1   
    53    20    30 2   
    54    21    55 1   
    55    22    23 1   
    56    22    56 1   
    57    23    24 2   
    58    23    57 1   
    59    24    25 1   
    60    24    58 1   
    61    25    32 1   
    62    25    59 1   
    63    26    63 1   
    64    28    64 1   
    65    29    65 1   
    66    32    68 1   
    67    60    68 1   
    68    61    68 1   
    69    62    68 1   
@<TRIPOS>SUBSTRUCTURE
     1 83Z         1 TEMP              0 ****  ****    0 ROOT
