@<TRIPOS>MOLECULE
841
   45    47     1     0     0
SMALL
No Charge or Current Charge


@<TRIPOS>ATOM
      1 O           -1.9290     0.9100     0.9760 o          1 841      -0.647100
      2 C11         -2.6490     0.0420     0.5100 c          1 841       0.658100
      3 N3          -3.9660     0.3050     0.1090 n          1 841      -0.439800
      4 C15         -4.8910    -0.7080    -0.4480 c5         1 841       0.110500
      5 C14         -6.2470     0.0410    -0.3900 c5         1 841      -0.094900
      6 C13         -5.8190     1.4960    -0.7020 c5         1 841      -0.094900
      7 C12         -4.5640     1.6530     0.1940 c5         1 841       0.110500
      8 N2          -2.2290    -1.2550     0.3390 ns         1 841      -0.517900
      9 C10         -0.8830    -1.7540     0.6340 c3         1 841       0.109000
     10 C7           0.0000    -1.9170    -0.6420 c6         1 841      -0.073700
     11 C6           1.3590    -2.5930    -0.3240 c6         1 841      -0.078400
     12 C5           2.3080    -1.6590     0.4720 c6         1 841       0.214800
     13 C8           0.2800    -0.5800    -1.3810 c6         1 841      -0.078400
     14 C9           1.2270     0.3440    -0.5740 c6         1 841       0.214800
     15 N1           2.5020    -0.3520    -0.2190 nh         1 841      -0.774300
     16 C3           3.6780     0.3940    -0.0200 ca         1 841       0.618900
     17 C4           4.5130     0.2170     1.1020 ca         1 841      -0.232000
     18 C            5.6740     0.9930     1.2260 ca         1 841      -0.038000
     19 N            3.9480     1.2850    -0.9900 nb         1 841      -0.749000
     20 C2           5.0660     2.0320    -0.8720 ca         1 841       0.386900
     21 C1           5.9510     1.9180     0.2120 ca         1 841      -0.223000
     22 H1          -4.6130    -0.9590    -1.4810 h1         1 841       0.046950
     23 H2          -4.9160    -1.6320     0.1460 h1         1 841       0.046950
     24 H3          -6.9750    -0.3540    -1.1080 hc         1 841       0.053700
     25 H4          -6.6960    -0.0330     0.6080 hc         1 841       0.053700
     26 H5          -5.5630     1.6140    -1.7620 hc         1 841       0.053700
     27 H6          -6.5960     2.2310    -0.4670 hc         1 841       0.053700
     28 H7          -4.8350     1.8880     1.2320 h1         1 841       0.046950
     29 H8          -3.8890     2.4350    -0.1780 h1         1 841       0.046950
     30 H9          -2.9020    -1.8960    -0.0570 hn         1 841       0.300500
     31 H10         -0.3890    -1.0860     1.3520 h1         1 841       0.051200
     32 H11         -0.9870    -2.7350     1.1160 h1         1 841       0.051200
     33 H12         -0.5610    -2.5780    -1.3170 hc         1 841       0.043700
     34 H13          1.2010    -3.5240     0.2360 hc         1 841       0.050450
     35 H14          1.8510    -2.8820    -1.2630 hc         1 841       0.050450
     36 H15          1.9040    -1.4950     1.4820 h1         1 841       0.050200
     37 H16          3.2720    -2.1770     0.5860 h1         1 841       0.050200
     38 H17          0.7400    -0.7930    -2.3560 hc         1 841       0.050450
     39 H18         -0.6570    -0.0520    -1.6010 hc         1 841       0.050450
     40 H19          1.4150     1.2440    -1.1780 h1         1 841       0.050200
     41 H20          0.7210     0.6790     0.3430 h1         1 841       0.050200
     42 H21          4.2630    -0.5010     1.8750 ha         1 841       0.119000
     43 H22          6.3360     0.8810     2.0820 ha         1 841       0.112000
     44 H23          5.2590     2.7450    -1.6720 h4         1 841       0.012100
     45 H24          6.8370     2.5450     0.2580 ha         1 841       0.123000
@<TRIPOS>BOND
     1     1     2 2   
     2     2     3 1   
     3     2     8 1   
     4     3     4 1   
     5     3     7 1   
     6     4     5 1   
     7     4    22 1   
     8     4    23 1   
     9     5     6 1   
    10     5    24 1   
    11     5    25 1   
    12     6     7 1   
    13     6    26 1   
    14     6    27 1   
    15     7    28 1   
    16     7    29 1   
    17     8     9 1   
    18     8    30 1   
    19     9    10 1   
    20     9    31 1   
    21     9    32 1   
    22    10    11 1   
    23    10    13 1   
    24    10    33 1   
    25    11    12 1   
    26    11    34 1   
    27    11    35 1   
    28    12    15 1   
    29    12    36 1   
    30    12    37 1   
    31    13    14 1   
    32    13    38 1   
    33    13    39 1   
    34    14    15 1   
    35    14    40 1   
    36    14    41 1   
    37    15    16 1   
    38    16    17 ar  
    39    16    19 ar  
    40    17    18 ar  
    41    17    42 1   
    42    18    21 ar  
    43    18    43 1   
    44    19    20 ar  
    45    20    21 ar  
    46    20    44 1   
    47    21    45 1   
@<TRIPOS>SUBSTRUCTURE
     1 841         1 TEMP              0 ****  ****    0 ROOT
