@<TRIPOS>MOLECULE
841
   45    47     1     0     0
SMALL
bcc


@<TRIPOS>ATOM
      1 O           -2.5980     0.4970     1.8980 o          1 841      -0.647100
      2 C11         -2.9480    -0.0480     0.8540 c          1 841       0.792100
      3 N3          -4.1550     0.2000     0.2870 n          1 841      -0.506800
      4 C15         -4.6220    -0.3340    -0.9810 c5         1 841       0.110500
      5 C14         -6.0530     0.1850    -1.0800 c5         1 841      -0.094900
      6 C13         -6.0020     1.4990    -0.3090 c5         1 841      -0.094900
      7 C12         -5.0640     1.1880     0.8510 c5         1 841       0.110500
      8 N2          -2.1430    -0.9200     0.1840 ns         1 841      -0.584900
      9 C10         -0.8960    -1.3890     0.7410 c3         1 841       0.109000
     10 C7           0.0270    -1.9230    -0.3520 c6         1 841      -0.073700
     11 C6           1.3040    -2.4980     0.2510 c6         1 841      -0.078400
     12 C5           2.2430    -1.4280     0.7940 c6         1 841       0.214800
     13 C8           0.4170    -0.8710    -1.3870 c6         1 841      -0.078400
     14 C9           1.3570     0.1820    -0.8240 c6         1 841       0.214800
     15 N1           2.5310    -0.4170    -0.2030 nh         1 841      -0.774300
     16 C3           3.6930     0.3150    -0.1430 ca         1 841       0.684200
     17 C4           4.7100     0.0590     0.7950 ca         1 841      -0.315300
     18 C            5.8710     0.8020     0.7380 ca         1 841      -0.056000
     19 N            3.8330     1.2870    -1.0460 nb         1 841      -0.749000
     20 C2           4.9510     1.9910    -1.0790 ca         1 841       0.452200
     21 C1           6.0180     1.7950    -0.2220 ca         1 841      -0.306300
     22 H1          -4.0110     0.0280    -1.8160 h1         1 841       0.046950
     23 H2          -4.5980    -1.4270    -1.0020 h1         1 841       0.046950
     24 H3          -6.3750     0.3010    -2.1140 hc         1 841       0.053700
     25 H4          -6.7380    -0.5130    -0.5960 hc         1 841       0.053700
     26 H5          -5.5750     2.2860    -0.9340 hc         1 841       0.053700
     27 H6          -6.9810     1.8370     0.0280 hc         1 841       0.053700
     28 H7          -5.6120     0.7760     1.7050 h1         1 841       0.046950
     29 H8          -4.5270     2.0680     1.2020 h1         1 841       0.046950
     30 H9          -2.5420    -1.4940    -0.5400 hn         1 841       0.300500
     31 H10         -0.4310    -0.5640     1.2790 h1         1 841       0.051200
     32 H11         -1.0630    -2.1830     1.4790 h1         1 841       0.051200
     33 H12         -0.4970    -2.7400    -0.8620 hc         1 841       0.043700
     34 H13          1.0770    -3.1970     1.0580 hc         1 841       0.050450
     35 H14          1.8330    -3.0700    -0.5160 hc         1 841       0.050450
     36 H15          1.8310    -0.9770     1.7080 h1         1 841       0.050200
     37 H16          3.1630    -1.9310     1.0860 h1         1 841       0.050200
     38 H17          0.9030    -1.3690    -2.2300 hc         1 841       0.050450
     39 H18         -0.4660    -0.3680    -1.7880 hc         1 841       0.050450
     40 H19          1.6850     0.8430    -1.6200 h1         1 841       0.050200
     41 H20          0.8260     0.8110    -0.0940 h1         1 841       0.050200
     42 H21          4.6040    -0.6870     1.5670 ha         1 841       0.137000
     43 H22          6.6590     0.6100     1.4560 ha         1 841       0.130000
     44 H23          4.9960     2.7630    -1.8410 h4         1 841       0.012100
     45 H24          6.9120     2.3970    -0.2930 ha         1 841       0.141000
@<TRIPOS>BOND
     1     1     2 2   
     2     2     3 1   
     3     2     8 1   
     4     3     4 1   
     5     3     7 1   
     6     4     5 1   
     7     4    22 1   
     8     4    23 1   
     9     5     6 1   
    10     5    24 1   
    11     5    25 1   
    12     6     7 1   
    13     6    26 1   
    14     6    27 1   
    15     7    28 1   
    16     7    29 1   
    17     8     9 1   
    18     8    30 1   
    19     9    10 1   
    20     9    31 1   
    21     9    32 1   
    22    10    11 1   
    23    10    13 1   
    24    10    33 1   
    25    11    12 1   
    26    11    34 1   
    27    11    35 1   
    28    12    15 1   
    29    12    36 1   
    30    12    37 1   
    31    13    14 1   
    32    13    38 1   
    33    13    39 1   
    34    14    15 1   
    35    14    40 1   
    36    14    41 1   
    37    15    16 1   
    38    16    17 ar  
    39    16    19 ar  
    40    17    18 ar  
    41    17    42 1   
    42    18    21 ar  
    43    18    43 1   
    44    19    20 ar  
    45    20    21 ar  
    46    20    44 1   
    47    21    45 1   
@<TRIPOS>SUBSTRUCTURE
     1 841         1 TEMP              0 ****  ****    0 ROOT
