@<TRIPOS>MOLECULE
842
   67    70     1     0     0
SMALL
No Charge or Current Charge


@<TRIPOS>ATOM
      1 C1           2.9990    -3.5650     1.6420 c3         1 842      -0.182100
      2 C2           2.5500    -2.7520     0.4360 c          1 842       0.599100
      3 N3           2.2050    -1.4490     0.7220 ns         1 842      -0.506900
      4 C4           1.7810    -0.4290    -0.2550 c3         1 842       0.096700
      5 C5           0.4580    -0.8070    -1.0010 c3         1 842       0.152300
      6 C6          -0.6840    -1.2270    -0.0290 c3         1 842       0.143800
      7 N7          -1.9380    -1.4920    -0.7750 n7         1 842      -0.876400
      8 C8          -3.2150    -1.5670    -0.0210 c6         1 842       0.248500
      9 C9          -4.3810    -1.8100    -1.0360 c6         1 842      -0.061400
     10 C10         -4.2900    -3.1800    -1.7640 c6         1 842      -0.067400
     11 C11         -4.2240    -4.3530    -0.7590 c6         1 842      -0.070400
     12 C12         -3.0650    -4.1550     0.2440 c6         1 842      -0.067400
     13 C13         -3.1870    -2.7870     0.9670 c6         1 842      -0.061400
     14 C14         -3.4340    -0.1950     0.6880 ca         1 842      -0.088300
     15 C15         -3.4460     0.9900    -0.0870 ca         1 842      -0.114000
     16 C16         -3.6120     2.2590     0.5060 ca         1 842       0.010800
     17 C17         -3.7770     2.3490     1.9010 ca         1 842      -0.125000
     18 C18         -3.7670     1.1870     2.6870 ca         1 842      -0.097000
     19 C19         -3.5930    -0.0720     2.0910 ca         1 842      -0.103000
     20 N20         -3.6080     3.4160    -0.2830 na         1 842       0.229000
     21 N21         -2.6500     3.5890    -1.2610 nc         1 842      -0.557800
     22 C22         -2.9600     4.7890    -1.7200 cd         1 842       0.256900
     23 C23         -4.0660     5.3620    -1.0480 cd         1 842      -0.227000
     24 C24         -4.4910     4.4720    -0.1010 cc         1 842      -0.151000
     25 O25          2.5030    -3.2250    -0.6890 o          1 842      -0.606100
     26 C26          2.9390    -0.0630    -1.2230 c3         1 842      -0.055100
     27 C27          4.2470     0.2400    -0.5000 ca         1 842      -0.021300
     28 C28          5.3110    -0.6830    -0.5260 ca         1 842      -0.172000
     29 C29          6.5070    -0.4020     0.1520 ca         1 842       0.197500
     30 C30          6.6570     0.7970     0.8610 ca         1 842      -0.204000
     31 C31          5.6020     1.7180     0.8870 ca         1 842       0.197500
     32 C32          4.4010     1.4450     0.2120 ca         1 842      -0.172000
     33 F33          7.5190    -1.2950     0.1240 f          1 842      -0.174500
     34 F34          5.7400     2.8760     1.5690 f          1 842      -0.174500
     35 O35          0.0110     0.3000    -1.8220 oh         1 842      -0.681000
     36 H1           3.8320    -3.0470     2.1290 hc         1 842       0.060367
     37 H1A          2.2180    -3.5250     2.4100 hc         1 842       0.060367
     38 H1B          3.2600    -4.5970     1.3830 hc         1 842       0.060367
     39 HN3          2.2970    -1.1680     1.6920 hn         1 842       0.315500
     40 H4           1.5650     0.4720     0.3340 h1         1 842       0.048700
     41 H5           0.6690    -1.6750    -1.6410 h1         1 842       0.106700
     42 H6          -0.3800    -2.1210     0.5310 h1         1 842       0.038200
     43 H6A         -0.8250    -0.4160     0.6990 h1         1 842       0.038200
     44 HN7         -2.0250    -0.7430    -1.4690 hn         1 842       0.435000
     45 H9          -5.3400    -1.7520    -0.5030 hc         1 842       0.039450
     46 H9A         -4.4100    -1.0130    -1.7910 hc         1 842       0.039450
     47 H10         -5.1600    -3.3070    -2.4230 hc         1 842       0.046950
     48 H10A        -3.4060    -3.2010    -2.4160 hc         1 842       0.046950
     49 H11         -5.1760    -4.4290    -0.2160 hc         1 842       0.035200
     50 H11A        -4.0950    -5.3020    -1.2980 hc         1 842       0.035200
     51 H12         -3.0730    -4.9680     0.9840 hc         1 842       0.046950
     52 H12A        -2.1010    -4.2230    -0.2780 hc         1 842       0.046950
     53 H13         -2.3650    -2.6840     1.6890 hc         1 842       0.039450
     54 H13A        -4.1130    -2.8000     1.5580 hc         1 842       0.039450
     55 H15         -3.3190     0.9320    -1.1650 ha         1 842       0.139000
     56 H17         -3.8990     3.3180     2.3800 ha         1 842       0.123000
     57 H18         -3.8870     1.2630     3.7660 ha         1 842       0.119000
     58 H19         -3.5820    -0.9400     2.7430 ha         1 842       0.121000
     59 H22         -2.3750     5.2180    -2.5240 h4         1 842       0.041100
     60 H23         -4.4960     6.3370    -1.2510 ha         1 842       0.151000
     61 H24         -5.2890     4.4870     0.6300 h4         1 842       0.159000
     62 H26          3.0830    -0.8810    -1.9400 hc         1 842       0.079200
     63 H26A         2.6470     0.8070    -1.8230 hc         1 842       0.079200
     64 H28          5.2120    -1.6210    -1.0670 ha         1 842       0.139500
     65 H30          7.5840     1.0110     1.3850 ha         1 842       0.149000
     66 H32          3.5930     2.1710     0.2460 ha         1 842       0.139500
     67 HO35        -0.2430     1.0310    -1.2170 ho         1 842       0.467000
@<TRIPOS>BOND
     1     1     2 1   
     2     1    36 1   
     3     1    37 1   
     4     1    38 1   
     5     2     3 1   
     6     2    25 2   
     7     3     4 1   
     8     3    39 1   
     9     4     5 1   
    10     4    26 1   
    11     4    40 1   
    12     5     6 1   
    13     5    35 1   
    14     5    41 1   
    15     6     7 1   
    16     6    42 1   
    17     6    43 1   
    18     7     8 1   
    19     7    44 1   
    20     8     9 1   
    21     8    13 1   
    22     8    14 1   
    23     9    10 1   
    24     9    45 1   
    25     9    46 1   
    26    10    11 1   
    27    10    47 1   
    28    10    48 1   
    29    11    12 1   
    30    11    49 1   
    31    11    50 1   
    32    12    13 1   
    33    12    51 1   
    34    12    52 1   
    35    13    53 1   
    36    13    54 1   
    37    14    15 ar  
    38    14    19 ar  
    39    15    16 ar  
    40    15    55 1   
    41    16    17 ar  
    42    16    20 1   
    43    17    18 ar  
    44    17    56 1   
    45    18    19 ar  
    46    18    57 1   
    47    19    58 1   
    48    20    21 1   
    49    20    24 1   
    50    21    22 2   
    51    22    23 1   
    52    22    59 1   
    53    23    24 2   
    54    23    60 1   
    55    24    61 1   
    56    26    27 1   
    57    26    62 1   
    58    26    63 1   
    59    27    28 ar  
    60    27    32 ar  
    61    28    29 ar  
    62    28    64 1   
    63    29    30 ar  
    64    29    33 1   
    65    30    31 ar  
    66    30    65 1   
    67    31    32 ar  
    68    31    34 1   
    69    32    66 1   
    70    35    67 1   
@<TRIPOS>SUBSTRUCTURE
     1 842         1 TEMP              0 ****  ****    0 ROOT
