@<TRIPOS>MOLECULE
842
   67    70     1     0     0
SMALL
abcg2


@<TRIPOS>ATOM
      1 C1           2.9180    -3.3000     1.5440 c3         1 842      -0.182100
      2 C2           2.3880    -2.5780     0.3300 c          1 842       0.599100
      3 N3           1.9090    -1.3440     0.5620 ns         1 842      -0.506900
      4 C4           1.4030    -0.4370    -0.4480 c3         1 842       0.096700
      5 C5           0.1420    -0.9460    -1.1720 c3         1 842       0.152300
      6 C6          -0.8840    -1.4940    -0.1750 c3         1 842       0.143800
      7 N7          -2.1430    -1.7980    -0.8300 n7         1 842      -0.876400
      8 C8          -3.3420    -1.7650     0.0010 c6         1 842       0.248500
      9 C9          -4.5560    -1.9550    -0.9250 c6         1 842      -0.061400
     10 C10         -4.5420    -3.3020    -1.6420 c6         1 842      -0.067400
     11 C11         -4.4480    -4.4520    -0.6470 c6         1 842      -0.070400
     12 C12         -3.2450    -4.2860     0.2770 c6         1 842      -0.067400
     13 C13         -3.2890    -2.9400     0.9910 c6         1 842      -0.061400
     14 C14         -3.4910    -0.4220     0.7310 ca         1 842      -0.088300
     15 C15         -3.0020     0.7170     0.1020 ca         1 842      -0.114000
     16 C16         -2.9440     1.9360     0.7530 ca         1 842       0.010800
     17 C17         -3.4930     2.0850     2.0190 ca         1 842      -0.125000
     18 C18         -4.0750     0.9770     2.6150 ca         1 842      -0.097000
     19 C19         -4.0520    -0.2680     1.9960 ca         1 842      -0.103000
     20 N20         -2.2530     2.9930     0.1230 na         1 842       0.229000
     21 N21         -1.2140     2.7240    -0.6770 nc         1 842      -0.557800
     22 C22         -0.7640     3.8970    -1.0760 cd         1 842       0.256900
     23 C23         -1.5170     4.9470    -0.5260 cd         1 842      -0.227000
     24 C24         -2.4670     4.3200     0.2410 cc         1 842      -0.151000
     25 O25          2.3870    -3.0990    -0.7780 o          1 842      -0.606100
     26 C26          2.4970    -0.0030    -1.4380 c3         1 842      -0.055100
     27 C27          3.6340     0.6750    -0.7330 ca         1 842      -0.021300
     28 C28          4.7860    -0.0310    -0.4030 ca         1 842      -0.172000
     29 C29          5.7950     0.6150     0.2850 ca         1 842       0.197500
     30 C30          5.7140     1.9390     0.6680 ca         1 842      -0.204000
     31 C31          4.5560     2.6110     0.3240 ca         1 842       0.197500
     32 C32          3.5200     2.0140    -0.3640 ca         1 842      -0.172000
     33 F33          6.9050    -0.0690     0.5960 f          1 842      -0.174500
     34 F34          4.4440     3.9000     0.6750 f          1 842      -0.174500
     35 O35         -0.3820     0.0990    -1.9690 oh         1 842      -0.681000
     36 H1           2.9620    -2.6810     2.4380 hc         1 842       0.060367
     37 H1A          2.2850    -4.1630     1.7560 hc         1 842       0.060367
     38 H1B          3.9180    -3.6770     1.3330 hc         1 842       0.060367
     39 HN3          1.9680    -0.9870     1.5010 hn         1 842       0.315500
     40 H4           1.0890     0.4500     0.1140 h1         1 842       0.048700
     41 H5           0.4070    -1.7380    -1.8760 h1         1 842       0.106700
     42 H6          -0.4810    -2.4010     0.2800 h1         1 842       0.038200
     43 H6A         -0.9910    -0.7650     0.6430 h1         1 842       0.038200
     44 HN7         -2.2660    -1.2040    -1.6390 hn         1 842       0.435000
     45 H9          -5.4660    -1.8740    -0.3220 hc         1 842       0.039450
     46 H9A         -4.5940    -1.1340    -1.6500 hc         1 842       0.039450
     47 H10         -5.4470    -3.3960    -2.2490 hc         1 842       0.046950
     48 H10A        -3.6960    -3.3440    -2.3320 hc         1 842       0.046950
     49 H11         -5.3620    -4.4800    -0.0430 hc         1 842       0.035200
     50 H11A        -4.3950    -5.4070    -1.1750 hc         1 842       0.035200
     51 H12         -3.2260    -5.0880     1.0180 hc         1 842       0.046950
     52 H12A        -2.3220    -4.3660    -0.3020 hc         1 842       0.046950
     53 H13         -2.4330    -2.8280     1.6630 hc         1 842       0.039450
     54 H13A        -4.1810    -2.9200     1.6230 hc         1 842       0.039450
     55 H15         -2.6110     0.6520    -0.9000 ha         1 842       0.139000
     56 H17         -3.4480     3.0290     2.5470 ha         1 842       0.123000
     57 H18         -4.5150     1.0770     3.5990 ha         1 842       0.119000
     58 H19         -4.4670    -1.1160     2.5250 ha         1 842       0.121000
     59 H22          0.0850     3.9540    -1.7400 h4         1 842       0.041100
     60 H23         -1.3890     6.0060    -0.6740 ha         1 842       0.151000
     61 H24         -3.2740     4.7170     0.8360 h4         1 842       0.159000
     62 H26          2.8580    -0.8710    -1.9900 hc         1 842       0.079200
     63 H26A         2.0540     0.6800    -2.1630 hc         1 842       0.079200
     64 H28          4.9030    -1.0690    -0.6910 ha         1 842       0.139500
     65 H30          6.5170     2.4270     1.2040 ha         1 842       0.149000
     66 H32          2.6350     2.5850    -0.6150 ha         1 842       0.139500
     67 HO35        -0.5680     0.8850    -1.4240 ho         1 842       0.467000
@<TRIPOS>BOND
     1     1     2 1   
     2     1    36 1   
     3     1    37 1   
     4     1    38 1   
     5     2     3 1   
     6     2    25 2   
     7     3     4 1   
     8     3    39 1   
     9     4     5 1   
    10     4    26 1   
    11     4    40 1   
    12     5     6 1   
    13     5    35 1   
    14     5    41 1   
    15     6     7 1   
    16     6    42 1   
    17     6    43 1   
    18     7     8 1   
    19     7    44 1   
    20     8     9 1   
    21     8    13 1   
    22     8    14 1   
    23     9    10 1   
    24     9    45 1   
    25     9    46 1   
    26    10    11 1   
    27    10    47 1   
    28    10    48 1   
    29    11    12 1   
    30    11    49 1   
    31    11    50 1   
    32    12    13 1   
    33    12    51 1   
    34    12    52 1   
    35    13    53 1   
    36    13    54 1   
    37    14    15 ar  
    38    14    19 ar  
    39    15    16 ar  
    40    15    55 1   
    41    16    17 ar  
    42    16    20 1   
    43    17    18 ar  
    44    17    56 1   
    45    18    19 ar  
    46    18    57 1   
    47    19    58 1   
    48    20    21 1   
    49    20    24 1   
    50    21    22 2   
    51    22    23 1   
    52    22    59 1   
    53    23    24 2   
    54    23    60 1   
    55    24    61 1   
    56    26    27 1   
    57    26    62 1   
    58    26    63 1   
    59    27    28 ar  
    60    27    32 ar  
    61    28    29 ar  
    62    28    64 1   
    63    29    30 ar  
    64    29    33 1   
    65    30    31 ar  
    66    30    65 1   
    67    31    32 ar  
    68    31    34 1   
    69    32    66 1   
    70    35    67 1   
@<TRIPOS>SUBSTRUCTURE
     1 842         1 TEMP              0 ****  ****    0 ROOT
