@<TRIPOS>MOLECULE
843
   73    76     1     0     0
SMALL
No Charge or Current Charge


@<TRIPOS>ATOM
      1 C1           0.3550     2.1680    -1.6380 ca         1 843      -0.078500
      2 C2           0.7250     2.0160    -2.9850 ca         1 843      -0.225000
      3 C3           0.5290     0.7820    -3.6410 ca         1 843       0.314100
      4 C4          -0.0400    -0.2880    -2.9310 ca         1 843      -0.225000
      5 C5          -0.4130    -0.1380    -1.5850 ca         1 843      -0.078500
      6 C6          -0.2170     1.0930    -0.9330 ca         1 843      -0.242300
      7 P7           1.5020     1.6020    -6.0100 p5         1 843       1.251900
      8 O8           1.6850     0.9100    -7.3180 o          1 843      -0.896167
      9 O9           2.8260     2.0890    -5.5310 o          1 843      -0.896167
     10 O10          0.5840     2.7610    -6.2030 o          1 843      -0.896167
     11 C11         -0.6030     1.2460     0.5360 c3         1 843      -0.004100
     12 C12         -2.1360     1.4240     0.7580 c3         1 843       0.053700
     13 C13         -2.5310     1.5810     2.2630 c          1 843       0.577100
     14 N14         -1.9130     0.6890     3.1140 ns         1 843      -0.523900
     15 N15         -2.7280     2.4900    -0.0880 ns         1 843      -0.484900
     16 C16         -2.3640     3.8200    -0.0750 c          1 843       0.621100
     17 C17         -3.0860     4.6790    -1.1050 c3         1 843      -0.184100
     18 O18         -1.5370     4.2840     0.6970 o          1 843      -0.589100
     19 O19         -3.3210     2.4200     2.6810 o          1 843      -0.575100
     20 C20         -2.0460     0.6560     4.5890 c3         1 843       0.039700
     21 C21         -3.4150     0.1130     5.0770 c3         1 843      -0.078400
     22 C22         -3.8720    -1.2320     4.4700 c3         1 843      -0.074400
     23 C23         -2.9150    -2.4170     4.7170 c3         1 843      -0.094400
     24 C24         -1.5510    -2.2610     4.0210 c3         1 843       0.104000
     25 N25         -0.5700    -1.4410     4.7730 n          1 843      -0.402800
     26 C26         -0.8390    -0.1140     5.1970 c          1 843       0.551000
     27 C27          0.7890    -2.0080     4.9080 c3         1 843       0.147300
     28 C28          1.5290    -1.9320     3.5780 ca         1 843      -0.143300
     29 O29         -0.0750     0.4620     5.9630 o          1 843      -0.566000
     30 O30          0.8700     0.5620    -4.9510 os         1 843      -0.404500
     31 C54          1.7120    -3.0850     2.7930 ca         1 843      -0.105500
     32 C55          2.3230    -2.9940     1.5310 ca         1 843      -0.105500
     33 C56          2.7650    -1.7490     1.0160 cp         1 843       0.014000
     34 C57          2.5800    -0.6000     1.8240 ca         1 843      -0.105500
     35 C58          1.9710    -0.6900     3.0870 ca         1 843      -0.105500
     36 C63          3.3900    -1.6500    -0.3430 cp         1 843      -0.080000
     37 C64          3.1770    -0.5130    -1.1650 ca         1 843      -0.107000
     38 C65          3.7500    -0.4230    -2.4450 ca         1 843      -0.107500
     39 C66          4.5520    -1.4670    -2.9310 ca         1 843      -0.098000
     40 C67          4.7810    -2.6010    -2.1350 ca         1 843      -0.107500
     41 C68          4.2040    -2.6920    -0.8560 ca         1 843      -0.107000
     42 H1           0.5170     3.1230    -1.1430 ha         1 843       0.072500
     43 H2           1.1640     2.8600    -3.5050 ha         1 843       0.132000
     44 H4          -0.1890    -1.2410    -3.4300 ha         1 843       0.132000
     45 H5          -0.8470    -0.9790    -1.0490 ha         1 843       0.072500
     46 H111        -0.0680     2.0910     0.9860 hc         1 843       0.048700
     47 H112        -0.2570     0.3590     1.0790 hc         1 843       0.048700
     48 H12         -2.6040     0.4840     0.4380 h1         1 843       0.047700
     49 H14         -1.2680     0.0360     2.6860 hn         1 843       0.313500
     50 H15         -3.4250     2.2240    -0.7730 hn         1 843       0.303500
     51 H171        -2.7840     5.7310    -1.0640 hc         1 843       0.055367
     52 H172        -2.9250     4.2510    -2.1010 hc         1 843       0.055367
     53 H173        -4.1680     4.5620    -0.9740 hc         1 843       0.055367
     54 H20         -1.9510     1.6870     4.9550 h1         1 843       0.099700
     55 H211        -4.1830     0.8630     4.8550 hc         1 843       0.046200
     56 H212        -3.3890     0.0230     6.1700 hc         1 843       0.046200
     57 H221        -4.0300    -1.1120     3.3900 hc         1 843       0.037200
     58 H222        -4.8530    -1.4840     4.8930 hc         1 843       0.037200
     59 H231        -3.3950    -3.3240     4.3270 hc         1 843       0.043200
     60 H232        -2.7730    -2.5770     5.7930 hc         1 843       0.043200
     61 H241        -1.6800    -1.8700     3.0050 h1         1 843       0.055700
     62 H242        -1.1310    -3.2700     3.9070 h1         1 843       0.055700
     63 H271         0.7110    -3.0530     5.2350 h1         1 843       0.054700
     64 H272         1.3630    -1.4750     5.6760 h1         1 843       0.054700
     65 H54          1.3620    -4.0510     3.1510 ha         1 843       0.105500
     66 H55          2.4320    -3.8960     0.9350 ha         1 843       0.124000
     67 H57          2.9130     0.3720     1.4700 ha         1 843       0.124000
     68 H58          1.8300     0.2120     3.6790 ha         1 843       0.105500
     69 H64          2.5470     0.3000    -0.8160 ha         1 843       0.113500
     70 H65          3.5670     0.4550    -3.0620 ha         1 843       0.152000
     71 H66          4.9950    -1.3980    -3.9230 ha         1 843       0.120000
     72 H67          5.4050    -3.4110    -2.5090 ha         1 843       0.152000
     73 H68          4.4030    -3.5740    -0.2530 ha         1 843       0.113500
@<TRIPOS>BOND
     1     1     2 ar  
     2     1     6 ar  
     3     1    42 1   
     4     2     3 ar  
     5     2    43 1   
     6     3     4 ar  
     7     3    30 1   
     8     4     5 ar  
     9     4    44 1   
    10     5     6 ar  
    11     5    45 1   
    12     6    11 1   
    13     7     8 1   
    14     7     9 1   
    15     7    10 1   
    16     7    30 1   
    17    11    12 1   
    18    11    46 1   
    19    11    47 1   
    20    12    13 1   
    21    12    15 1   
    22    12    48 1   
    23    13    14 1   
    24    13    19 2   
    25    14    20 1   
    26    14    49 1   
    27    15    16 1   
    28    15    50 1   
    29    16    17 1   
    30    16    18 2   
    31    17    51 1   
    32    17    52 1   
    33    17    53 1   
    34    20    21 1   
    35    20    26 1   
    36    20    54 1   
    37    21    22 1   
    38    21    55 1   
    39    21    56 1   
    40    22    23 1   
    41    22    57 1   
    42    22    58 1   
    43    23    24 1   
    44    23    59 1   
    45    23    60 1   
    46    24    25 1   
    47    24    61 1   
    48    24    62 1   
    49    25    26 1   
    50    25    27 1   
    51    26    29 2   
    52    27    28 1   
    53    27    63 1   
    54    27    64 1   
    55    28    31 ar  
    56    28    35 ar  
    57    31    32 ar  
    58    31    65 1   
    59    32    33 ar  
    60    32    66 1   
    61    33    34 ar  
    62    33    36 1   
    63    34    35 ar  
    64    34    67 1   
    65    35    68 1   
    66    36    37 ar  
    67    36    41 ar  
    68    37    38 ar  
    69    37    69 1   
    70    38    39 ar  
    71    38    70 1   
    72    39    40 ar  
    73    39    71 1   
    74    40    41 ar  
    75    40    72 1   
    76    41    73 1   
@<TRIPOS>SUBSTRUCTURE
     1 843         1 TEMP              0 ****  ****    0 ROOT
