@<TRIPOS>MOLECULE
843
   73    76     1     0     0
SMALL
abcg2


@<TRIPOS>ATOM
      1 C1           0.2700     1.9150    -1.5840 ca         1 843      -0.078500
      2 C2           0.5380     1.6250    -2.9160 ca         1 843      -0.225000
      3 C3           0.1540     0.3960    -3.4650 ca         1 843       0.314100
      4 C4          -0.5130    -0.5090    -2.6260 ca         1 843      -0.225000
      5 C5          -0.7710    -0.2030    -1.3020 ca         1 843      -0.078500
      6 C6          -0.3830     1.0150    -0.7490 ca         1 843      -0.242300
      7 P7           1.2640     0.9300    -5.9210 p5         1 843       1.251900
      8 O8           1.2090    -0.0710    -7.0580 o          1 843      -0.896167
      9 O9           2.6340     1.1430    -5.2960 o          1 843      -0.896167
     10 O10          0.4390     2.1910    -6.1080 o          1 843      -0.896167
     11 C11         -0.6490     1.3130     0.6970 c3         1 843      -0.004100
     12 C12         -2.0830     1.8100     0.9710 c3         1 843       0.053700
     13 C13         -2.2790     1.8900     2.4860 c          1 843       0.577100
     14 N14         -2.6010     0.7000     3.0400 ns         1 843      -0.523900
     15 N15         -2.4440     3.0330     0.3040 ns         1 843      -0.484900
     16 C16         -1.7350     4.1790     0.2450 c          1 843       0.621100
     17 C17         -2.3830     5.2580    -0.5920 c3         1 843      -0.184100
     18 O18         -0.6450     4.3430     0.7700 o          1 843      -0.589100
     19 O19         -2.1020     2.9090     3.1240 o          1 843      -0.575100
     20 C20         -2.5530     0.4310     4.4610 c3         1 843       0.039700
     21 C21         -3.7090    -0.4490     4.9360 c3         1 843      -0.078400
     22 C22         -3.9180    -1.7550     4.1860 c3         1 843      -0.074400
     23 C23         -2.7280    -2.7010     4.2230 c3         1 843      -0.094400
     24 C24         -1.4600    -2.1560     3.5780 c3         1 843       0.104000
     25 N25         -0.6940    -1.2270     4.4020 n          1 843      -0.402800
     26 C26         -1.1540    -0.0480     4.8760 c          1 843       0.551000
     27 C27          0.6880    -1.6180     4.6550 c3         1 843       0.147300
     28 C28          1.4970    -1.5980     3.3840 ca         1 843      -0.143300
     29 O29         -0.4850     0.6730     5.6050 o          1 843      -0.566000
     30 O30          0.3740     0.0170    -4.7190 os         1 843      -0.404500
     31 C54          2.0180    -2.7660     2.8400 ca         1 843      -0.105500
     32 C55          2.6970    -2.7490     1.6290 ca         1 843      -0.105500
     33 C56          2.8640    -1.5610     0.9190 cp         1 843       0.014000
     34 C57          2.3570    -0.3860     1.4800 ca         1 843      -0.105500
     35 C58          1.6930    -0.4040     2.6930 ca         1 843      -0.105500
     36 C63          3.5380    -1.5440    -0.3940 cp         1 843      -0.080000
     37 C64          3.0450    -0.7510    -1.4330 ca         1 843      -0.107000
     38 C65          3.6620    -0.7370    -2.6760 ca         1 843      -0.107500
     39 C66          4.7900    -1.5190    -2.8960 ca         1 843      -0.098000
     40 C67          5.2920    -2.3130    -1.8710 ca         1 843      -0.107500
     41 C68          4.6690    -2.3270    -0.6310 ca         1 843      -0.107000
     42 H1           0.5920     2.8700    -1.1850 ha         1 843       0.072500
     43 H2           1.0600     2.3530    -3.5190 ha         1 843       0.132000
     44 H4          -0.8160    -1.4700    -3.0260 ha         1 843       0.132000
     45 H5          -1.2740    -0.9380    -0.6830 ha         1 843       0.072500
     46 H111         0.0680     2.0370     1.0800 hc         1 843       0.048700
     47 H112        -0.5060     0.4010     1.2810 hc         1 843       0.048700
     48 H12         -2.7650     1.0520     0.5740 h1         1 843       0.047700
     49 H14         -2.8160    -0.0590     2.4150 hn         1 843       0.313500
     50 H15         -3.3430     3.0300    -0.1490 hn         1 843       0.303500
     51 H171        -2.0700     6.2390    -0.2410 hc         1 843       0.055367
     52 H172        -2.0560     5.1540    -1.6280 hc         1 843       0.055367
     53 H173        -3.4710     5.2120    -0.5820 hc         1 843       0.055367
     54 H20         -2.6620     1.3910     4.9650 h1         1 843       0.099700
     55 H211        -4.6190     0.1500     4.8680 hc         1 843       0.046200
     56 H212        -3.5540    -0.6530     5.9990 hc         1 843       0.046200
     57 H221        -4.1900    -1.5560     3.1440 hc         1 843       0.037200
     58 H222        -4.7870    -2.2570     4.6170 hc         1 843       0.037200
     59 H231        -2.9930    -3.6170     3.6900 hc         1 843       0.043200
     60 H232        -2.5040    -2.9950     5.2520 hc         1 843       0.043200
     61 H241        -1.6760    -1.7320     2.5920 h1         1 843       0.055700
     62 H242        -0.8000    -2.9980     3.3780 h1         1 843       0.055700
     63 H271         0.6980    -2.6210     5.0900 h1         1 843       0.054700
     64 H272         1.1130    -0.9440     5.3960 h1         1 843       0.054700
     65 H54          1.8750    -3.7080     3.3560 ha         1 843       0.105500
     66 H55          3.0660    -3.6810     1.2190 ha         1 843       0.124000
     67 H57          2.4890     0.5570     0.9630 ha         1 843       0.124000
     68 H58          1.3190     0.5270     3.1040 ha         1 843       0.105500
     69 H64          2.1520    -0.1580    -1.2800 ha         1 843       0.113500
     70 H65          3.2560    -0.1230    -3.4740 ha         1 843       0.152000
     71 H66          5.2760    -1.5140    -3.8630 ha         1 843       0.120000
     72 H67          6.1740    -2.9190    -2.0330 ha         1 843       0.152000
     73 H68          5.0790    -2.9380     0.1640 ha         1 843       0.113500
@<TRIPOS>BOND
     1     1     2 ar  
     2     1     6 ar  
     3     1    42 1   
     4     2     3 ar  
     5     2    43 1   
     6     3     4 ar  
     7     3    30 1   
     8     4     5 ar  
     9     4    44 1   
    10     5     6 ar  
    11     5    45 1   
    12     6    11 1   
    13     7     8 1   
    14     7     9 1   
    15     7    10 1   
    16     7    30 1   
    17    11    12 1   
    18    11    46 1   
    19    11    47 1   
    20    12    13 1   
    21    12    15 1   
    22    12    48 1   
    23    13    14 1   
    24    13    19 2   
    25    14    20 1   
    26    14    49 1   
    27    15    16 1   
    28    15    50 1   
    29    16    17 1   
    30    16    18 2   
    31    17    51 1   
    32    17    52 1   
    33    17    53 1   
    34    20    21 1   
    35    20    26 1   
    36    20    54 1   
    37    21    22 1   
    38    21    55 1   
    39    21    56 1   
    40    22    23 1   
    41    22    57 1   
    42    22    58 1   
    43    23    24 1   
    44    23    59 1   
    45    23    60 1   
    46    24    25 1   
    47    24    61 1   
    48    24    62 1   
    49    25    26 1   
    50    25    27 1   
    51    26    29 2   
    52    27    28 1   
    53    27    63 1   
    54    27    64 1   
    55    28    31 ar  
    56    28    35 ar  
    57    31    32 ar  
    58    31    65 1   
    59    32    33 ar  
    60    32    66 1   
    61    33    34 ar  
    62    33    36 1   
    63    34    35 ar  
    64    34    67 1   
    65    35    68 1   
    66    36    37 ar  
    67    36    41 ar  
    68    37    38 ar  
    69    37    69 1   
    70    38    39 ar  
    71    38    70 1   
    72    39    40 ar  
    73    39    71 1   
    74    40    41 ar  
    75    40    72 1   
    76    41    73 1   
@<TRIPOS>SUBSTRUCTURE
     1 843         1 TEMP              0 ****  ****    0 ROOT
