@<TRIPOS>MOLECULE
844
   57    60     1     0     0
SMALL
No Charge or Current Charge


@<TRIPOS>ATOM
      1 C01         -3.0980     3.6500     0.7040 c3         1 844       0.145400
      2 O02         -4.2390     2.9190     0.2180 os         1 844      -0.323100
      3 C03         -4.2470     1.5430     0.0490 ca         1 844       0.158100
      4 C04         -5.4100     0.8770    -0.4440 ca         1 844       0.027100
      5 O05         -6.6030     1.5140    -0.7950 os         1 844      -0.327100
      6 C06         -6.8400     2.9310    -0.7170 c3         1 844       0.148900
      7 C07         -5.3820    -0.5300    -0.5990 ca         1 844       0.158100
      8 C08         -4.2210    -1.2610    -0.2720 ca         1 844      -0.218500
      9 C09         -3.0630    -0.6200     0.2150 cp         1 844       0.038000
     10 C10         -3.0980     0.7830     0.3690 ca         1 844      -0.218500
     11 C11         -1.8350    -1.4030     0.5590 cp         1 844      -0.089000
     12 C12         -0.5360    -0.8830     0.3430 ca         1 844      -0.064000
     13 C13          0.6110    -1.6430     0.6760 cp         1 844      -0.067000
     14 C14          0.3840    -2.9320     1.2260 ca         1 844       0.341900
     15 N15         -0.8440    -3.4580     1.4450 nb         1 844      -0.666000
     16 C16         -1.9190    -2.7050     1.1150 ca         1 844       0.343900
     17 C17          1.9960    -1.1150     0.4560 cp         1 844      -0.079000
     18 C18          3.0670    -1.9810     0.1250 ca         1 844      -0.062500
     19 C19          4.3660    -1.4840    -0.0800 ca         1 844      -0.171000
     20 C20          4.6390    -0.1100     0.0390 ca         1 844       0.315000
     21 C21          3.5820     0.7620     0.3660 ca         1 844      -0.171000
     22 C22          2.2820     0.2680     0.5720 ca         1 844      -0.062500
     23 N23          5.9540     0.3680    -0.1730 nh         1 844      -0.793400
     24 C24          6.2060     1.7790    -0.6190 c6         1 844       0.202300
     25 C25          7.6060     1.9530    -1.3020 c6         1 844       0.148300
     26 N26          8.7290     1.4200    -0.4790 n7         1 844      -0.858400
     27 C27          8.4780     0.0000    -0.0950 c6         1 844       0.148300
     28 C28          7.0950    -0.2100     0.6110 c6         1 844       0.202300
     29 O29         -6.5190    -1.1590    -1.0820 os         1 844      -0.323100
     30 C30         -6.6000    -2.5820    -1.2750 c3         1 844       0.145400
     31 H011        -3.3260     4.7220     0.7480 h1         1 844       0.042200
     32 H012        -2.8240     3.3200     1.7140 h1         1 844       0.042200
     33 H013        -2.2360     3.5140     0.0390 h1         1 844       0.042200
     34 H10         -2.2120     1.2690     0.7610 ha         1 844       0.123000
     35 H061        -6.1420     3.4810    -1.3610 h1         1 844       0.033367
     36 H062        -7.8580     3.1600    -1.0550 h1         1 844       0.033367
     37 H063        -6.7420     3.2890     0.3150 h1         1 844       0.033367
     38 H08         -4.1960    -2.3380    -0.4060 ha         1 844       0.123000
     39 H12         -0.4190     0.0980    -0.1090 ha         1 844       0.122000
     40 H16         -2.8890    -3.1580     1.3170 h4         1 844       0.022100
     41 H14          1.2220    -3.5650     1.5140 h4         1 844       0.021100
     42 H18          2.8910    -3.0480     0.0100 ha         1 844       0.110500
     43 H22          1.4940     0.9670     0.8410 ha         1 844       0.110500
     44 H19          5.1610    -2.1720    -0.3480 ha         1 844       0.114000
     45 H21          3.7620     1.8260     0.4780 ha         1 844       0.114000
     46 H241         5.4330     2.0960    -1.3350 h1         1 844       0.045700
     47 H242         6.1510     2.4570     0.2450 h1         1 844       0.045700
     48 H281         7.1330     0.2620     1.6040 h1         1 844       0.045700
     49 H282         6.9540    -1.2880     0.7740 h1         1 844       0.045700
     50 H251         7.5900     1.4270    -2.2690 h1         1 844       0.039450
     51 H252         7.7770     3.0190    -1.5140 h1         1 844       0.039450
     52 H26          9.6010     1.4730    -1.0230 hn         1 844       0.415000
     53 H271         8.5080    -0.6260    -0.9990 h1         1 844       0.039450
     54 H272         9.2820    -0.3490     0.5700 h1         1 844       0.039450
     55 H301        -7.5900    -2.8570    -1.6590 h1         1 844       0.042200
     56 H302        -5.8490    -2.9210    -1.9990 h1         1 844       0.042200
     57 H303        -6.4440    -3.1140    -0.3280 h1         1 844       0.042200
@<TRIPOS>BOND
     1     1     2 1   
     2     1    31 1   
     3     1    32 1   
     4     1    33 1   
     5     2     3 1   
     6     3     4 ar  
     7     3    10 ar  
     8     4     5 1   
     9     4     7 ar  
    10     5     6 1   
    11     6    35 1   
    12     6    36 1   
    13     6    37 1   
    14     7     8 ar  
    15     7    29 1   
    16     8     9 ar  
    17     8    38 1   
    18     9    10 ar  
    19     9    11 1   
    20    10    34 1   
    21    11    12 ar  
    22    11    16 ar  
    23    12    13 ar  
    24    12    39 1   
    25    13    14 ar  
    26    13    17 1   
    27    14    15 ar  
    28    14    41 1   
    29    15    16 ar  
    30    16    40 1   
    31    17    18 ar  
    32    17    22 ar  
    33    18    19 ar  
    34    18    42 1   
    35    19    20 ar  
    36    19    44 1   
    37    20    21 ar  
    38    20    23 1   
    39    21    22 ar  
    40    21    45 1   
    41    22    43 1   
    42    23    24 1   
    43    23    28 1   
    44    24    25 1   
    45    24    46 1   
    46    24    47 1   
    47    25    26 1   
    48    25    50 1   
    49    25    51 1   
    50    26    27 1   
    51    26    52 1   
    52    27    28 1   
    53    27    53 1   
    54    27    54 1   
    55    28    48 1   
    56    28    49 1   
    57    29    30 1   
    58    30    55 1   
    59    30    56 1   
    60    30    57 1   
@<TRIPOS>SUBSTRUCTURE
     1 844         1 TEMP              0 ****  ****    0 ROOT
