@<TRIPOS>MOLECULE
844
   57    60     1     0     0
SMALL
abcg2


@<TRIPOS>ATOM
      1 C01         -3.1980     3.6100     1.2270 c3         1 844       0.145400
      2 O02         -4.2930     2.9240     0.6510 os         1 844      -0.323100
      3 C03         -4.1710     1.6070     0.4150 ca         1 844       0.158100
      4 C04         -5.2980     0.9860    -0.1330 ca         1 844       0.027100
      5 O05         -6.4230     1.7060    -0.3770 os         1 844      -0.327100
      6 C06         -6.4730     2.2900    -1.6720 c3         1 844       0.148900
      7 C07         -5.2680    -0.3820    -0.4150 ca         1 844       0.158100
      8 C08         -4.1260    -1.1280    -0.1340 ca         1 844      -0.218500
      9 C09         -3.0100    -0.5040     0.4170 cp         1 844       0.038000
     10 C10         -3.0300     0.8600     0.6930 ca         1 844      -0.218500
     11 C11         -1.8000    -1.2930     0.7160 cp         1 844      -0.089000
     12 C12         -0.5260    -0.7990     0.4610 ca         1 844      -0.064000
     13 C13          0.5990    -1.5660     0.7530 cp         1 844      -0.067000
     14 C14          0.3720    -2.8290     1.3040 ca         1 844       0.341900
     15 N15         -0.8340    -3.3190     1.5470 nb         1 844      -0.666000
     16 C16         -1.8900    -2.5730     1.2600 ca         1 844       0.343900
     17 C17          1.9600    -1.0760     0.4900 cp         1 844      -0.079000
     18 C18          2.9870    -1.9410     0.1020 ca         1 844      -0.062500
     19 C19          4.2640    -1.4830    -0.1530 ca         1 844      -0.171000
     20 C20          4.5920    -0.1210    -0.0340 ca         1 844       0.315000
     21 C21          3.5620     0.7440     0.3680 ca         1 844      -0.171000
     22 C22          2.2830     0.2730     0.6130 ca         1 844      -0.062500
     23 N23          5.8670     0.3350    -0.3350 nh         1 844      -0.793400
     24 C24          6.1160     1.7640    -0.2660 c6         1 844       0.202300
     25 C25          7.4120     2.1210    -0.9710 c6         1 844       0.148300
     26 N26          8.5090     1.3650    -0.4040 n7         1 844      -0.858400
     27 C27          8.2750    -0.0510    -0.6000 c6         1 844       0.148300
     28 C28          7.0030    -0.4610     0.1170 c6         1 844       0.202300
     29 O29         -6.3880    -0.8860    -0.9570 os         1 844      -0.323100
     30 C30         -6.4190    -2.2610    -1.2870 c3         1 844       0.145400
     31 H011        -3.5080     4.6460     1.3360 h1         1 844       0.042200
     32 H012        -2.9400     3.2140     2.2120 h1         1 844       0.042200
     33 H013        -2.3110     3.5740     0.5880 h1         1 844       0.042200
     34 H10         -2.1630     1.3200     1.1460 ha         1 844       0.123000
     35 H061        -6.4060     1.5360    -2.4590 h1         1 844       0.033367
     36 H062        -7.4320     2.7990    -1.7570 h1         1 844       0.033367
     37 H063        -5.6750     3.0220    -1.8170 h1         1 844       0.033367
     38 H08         -4.0850    -2.1830    -0.3670 ha         1 844       0.123000
     39 H12         -0.4110     0.1750    -0.0010 ha         1 844       0.122000
     40 H16         -2.8610    -2.9990     1.4910 h4         1 844       0.022100
     41 H14          1.2090    -3.4640     1.5740 h4         1 844       0.021100
     42 H18          2.7850    -2.9960    -0.0360 ha         1 844       0.110500
     43 H22          1.5310     0.9820     0.9390 ha         1 844       0.110500
     44 H19          5.0040    -2.1990    -0.4810 ha         1 844       0.114000
     45 H21          3.7470     1.7980     0.5150 ha         1 844       0.114000
     46 H241         5.3050     2.2960    -0.7640 h1         1 844       0.045700
     47 H242         6.1540     2.1160     0.7760 h1         1 844       0.045700
     48 H281         7.1430    -0.3460     1.2020 h1         1 844       0.045700
     49 H282         6.8290    -1.5160    -0.0790 h1         1 844       0.045700
     50 H251         7.2860     1.9390    -2.0500 h1         1 844       0.039450
     51 H252         7.5930     3.1890    -0.8400 h1         1 844       0.039450
     52 H26          9.3770     1.6350    -0.8460 hn         1 844       0.415000
     53 H271         8.1850    -0.3250    -1.6640 h1         1 844       0.039450
     54 H272         9.1080    -0.6220    -0.1860 h1         1 844       0.039450
     55 H301        -7.4000    -2.4520    -1.7140 h1         1 844       0.042200
     56 H302        -5.6570    -2.5200    -2.0270 h1         1 844       0.042200
     57 H303        -6.2880    -2.8960    -0.4080 h1         1 844       0.042200
@<TRIPOS>BOND
     1     1     2 1   
     2     1    31 1   
     3     1    32 1   
     4     1    33 1   
     5     2     3 1   
     6     3     4 ar  
     7     3    10 ar  
     8     4     5 1   
     9     4     7 ar  
    10     5     6 1   
    11     6    35 1   
    12     6    36 1   
    13     6    37 1   
    14     7     8 ar  
    15     7    29 1   
    16     8     9 ar  
    17     8    38 1   
    18     9    10 ar  
    19     9    11 1   
    20    10    34 1   
    21    11    12 ar  
    22    11    16 ar  
    23    12    13 ar  
    24    12    39 1   
    25    13    14 ar  
    26    13    17 1   
    27    14    15 ar  
    28    14    41 1   
    29    15    16 ar  
    30    16    40 1   
    31    17    18 ar  
    32    17    22 ar  
    33    18    19 ar  
    34    18    42 1   
    35    19    20 ar  
    36    19    44 1   
    37    20    21 ar  
    38    20    23 1   
    39    21    22 ar  
    40    21    45 1   
    41    22    43 1   
    42    23    24 1   
    43    23    28 1   
    44    24    25 1   
    45    24    46 1   
    46    24    47 1   
    47    25    26 1   
    48    25    50 1   
    49    25    51 1   
    50    26    27 1   
    51    26    52 1   
    52    27    28 1   
    53    27    53 1   
    54    27    54 1   
    55    28    48 1   
    56    28    49 1   
    57    29    30 1   
    58    30    55 1   
    59    30    56 1   
    60    30    57 1   
@<TRIPOS>SUBSTRUCTURE
     1 844         1 TEMP              0 ****  ****    0 ROOT
