@<TRIPOS>MOLECULE
846
   79    84     1     0     0
SMALL
bcc


@<TRIPOS>ATOM
      1 C1          -8.4630    14.9980    27.8620 c          1 846       0.824500
      2 C2          -8.5810    14.4570    30.1920 c3         1 846       0.140300
      3 C3         -10.3200    15.9370    29.2150 c3         1 846       0.112700
      4 C4         -10.2950    17.4500    29.0080 c3         1 846       0.156100
      5 C5          -9.9850    17.8640    27.5820 c3         1 846       0.099100
      6 C6          -8.6300    17.3580    27.0800 c3         1 846       0.107700
      7 C7          -8.3760    15.4940    25.4830 c3         1 846       0.128000
      8 C20         -8.7100    15.1230    31.5350 ca         1 846      -0.107300
      9 C21         -9.5870    14.6090    32.4800 ca         1 846      -0.091000
     10 C22         -9.7220    15.1940    33.7380 ca         1 846      -0.151600
     11 C23         -8.9650    16.3220    34.0440 ca         1 846      -0.064000
     12 C24         -8.0820    16.8390    33.1080 ca         1 846      -0.142000
     13 C25         -7.9550    16.2450    31.8620 ca         1 846      -0.083000
     14 C26        -10.6750    14.6940    34.7650 c          1 846       0.688700
     15 C27        -12.1610    12.8780    35.3660 cc         1 846       0.532300
     16 C28        -13.5770    11.3490    36.0240 cd         1 846       0.367200
     17 C29        -13.7770    12.2330    37.0290 cc         1 846      -0.253400
     18 C31        -11.4080    15.1960    28.4190 c3         1 846      -0.053100
     19 C32        -11.6470    13.8220    28.9850 ca         1 846      -0.088300
     20 C33        -11.1990    12.6770    28.3340 ca         1 846      -0.127000
     21 C34        -11.3620    11.4210    28.9060 ca         1 846      -0.133000
     22 C35        -11.9790    11.2910    30.1420 ca         1 846      -0.128000
     23 C36        -12.4460    12.4250    30.7960 ca         1 846      -0.133000
     24 C37        -12.2830    13.6760    30.2190 ca         1 846      -0.127000
     25 C61         -7.4210    17.8540    27.8880 c3         1 846      -0.046100
     26 C62         -6.1310    17.5480    27.1790 ca         1 846      -0.086300
     27 C63         -5.7470    18.2980    26.0670 ca         1 846      -0.123000
     28 C64         -4.5850    18.0000    25.3720 ca         1 846      -0.125500
     29 C65         -3.7810    16.9420    25.7790 ca         1 846      -0.128000
     30 C66         -4.1470    16.1930    26.8880 ca         1 846      -0.125500
     31 C67         -5.3130    16.4960    27.5820 ca         1 846      -0.123000
     32 C70         -9.6020    15.6610    24.6230 cx         1 846      -0.149700
     33 C71         -9.7610    14.7990    23.4100 cx         1 846      -0.125900
     34 C72        -10.6410    14.5850    24.6060 cx         1 846      -0.125900
     35 N2          -8.9910    15.3330    29.0950 n          1 846      -0.477800
     36 N7          -8.6120    15.9150    26.8600 n          1 846      -0.486800
     37 N26        -11.2150    13.4610    34.5580 ns         1 846      -0.533400
     38 N27        -12.6590    11.7180    35.0810 nd         1 846      -0.713000
     39 O1          -7.8810    13.9340    27.6910 o          1 846      -0.666500
     40 O4         -11.5520    17.9360    29.4130 oh         1 846      -0.600800
     41 O5         -10.0310    19.2760    27.5640 oh         1 846      -0.607800
     42 O26        -10.9720    15.3440    35.7520 o          1 846      -0.576100
     43 S29        -12.7700    13.6140    36.8070 ss         1 846      -0.083300
     44 H21A        -7.5370    14.1880    30.0370 h1         1 846       0.065700
     45 H22         -9.1500    13.5230    30.1950 h1         1 846       0.065700
     46 H3         -10.5910    15.8260    30.2670 h1         1 846       0.078700
     47 H4          -9.5070    17.8450    29.6680 h1         1 846       0.053700
     48 H5         -10.7530    17.4480    26.9150 h1         1 846       0.054700
     49 H6          -8.5240    17.7900    26.0810 h1         1 846       0.050700
     50 H71         -8.0650    14.4510    25.4780 h1         1 846       0.066200
     51 H72         -7.5430    16.0710    25.0710 h1         1 846       0.066200
     52 H21        -10.1830    13.7540    32.1850 ha         1 846       0.138000
     53 H23         -9.0610    16.7930    35.0130 ha         1 846       0.157000
     54 H24         -7.4890    17.7090    33.3550 ha         1 846       0.140000
     55 H25         -7.2600    16.6560    31.1390 ha         1 846       0.139000
     56 H28        -14.0850    10.4000    35.9240 h4         1 846       0.039100
     57 H29        -14.4480    12.1540    37.8690 h4         1 846       0.178000
     58 H311       -12.3280    15.7810    28.4770 hc         1 846       0.067200
     59 H312       -11.1480    15.1280    27.3610 hc         1 846       0.067200
     60 H33        -10.7100    12.7650    27.3720 ha         1 846       0.134000
     61 H34        -11.0010    10.5430    28.3850 ha         1 846       0.136000
     62 H35        -12.1020    10.3140    30.5910 ha         1 846       0.134000
     63 H36        -12.9320    12.3350    31.7590 ha         1 846       0.136000
     64 H37        -12.6470    14.5550    30.7390 ha         1 846       0.134000
     65 H611        -7.5240    18.9330    28.0190 hc         1 846       0.065200
     66 H612        -7.4120    17.4140    28.8840 hc         1 846       0.065200
     67 H63         -6.3670    19.1270    25.7420 ha         1 846       0.129000
     68 H64         -4.3040    18.5950    24.5120 ha         1 846       0.131500
     69 H65         -2.8740    16.7060    25.2370 ha         1 846       0.131000
     70 H66         -3.5260    15.3700    27.2170 ha         1 846       0.131500
     71 H67         -5.5870    15.9090    28.4510 ha         1 846       0.129000
     72 H70         -9.9670    16.6800    24.5290 hc         1 846       0.069700
     73 H711       -10.1950    15.2390    22.5210 hc         1 846       0.073450
     74 H712        -8.9930    14.0610    23.2110 hc         1 846       0.073450
     75 H721       -10.4630    13.7020    25.2080 hc         1 846       0.073450
     76 H722       -11.6820    14.8730    24.5390 hc         1 846       0.073450
     77 HN6        -10.9260    12.8900    33.7760 hn         1 846       0.344500
     78 HO4        -11.5990    18.8670    29.1700 ho         1 846       0.426000
     79 HO5        -10.1110    19.5750    26.6530 ho         1 846       0.412000
@<TRIPOS>BOND
     1     1    35 1   
     2     1    36 1   
     3     1    39 2   
     4     2     8 1   
     5     2    35 1   
     6     2    44 1   
     7     2    45 1   
     8     3     4 1   
     9     3    18 1   
    10     3    35 1   
    11     3    46 1   
    12     4     5 1   
    13     4    40 1   
    14     4    47 1   
    15     5     6 1   
    16     5    41 1   
    17     5    48 1   
    18     6    25 1   
    19     6    36 1   
    20     6    49 1   
    21     7    32 1   
    22     7    36 1   
    23     7    50 1   
    24     7    51 1   
    25     8     9 ar  
    26     8    13 ar  
    27     9    10 ar  
    28     9    52 1   
    29    10    11 ar  
    30    10    14 1   
    31    11    12 ar  
    32    11    53 1   
    33    12    13 ar  
    34    12    54 1   
    35    13    55 1   
    36    14    37 1   
    37    14    42 2   
    38    15    37 1   
    39    15    38 2   
    40    15    43 1   
    41    16    17 2   
    42    16    38 1   
    43    16    56 1   
    44    17    43 1   
    45    17    57 1   
    46    18    19 1   
    47    18    58 1   
    48    18    59 1   
    49    19    20 ar  
    50    19    24 ar  
    51    20    21 ar  
    52    20    60 1   
    53    21    22 ar  
    54    21    61 1   
    55    22    23 ar  
    56    22    62 1   
    57    23    24 ar  
    58    23    63 1   
    59    24    64 1   
    60    25    26 1   
    61    25    65 1   
    62    25    66 1   
    63    26    27 ar  
    64    26    31 ar  
    65    27    28 ar  
    66    27    67 1   
    67    28    29 ar  
    68    28    68 1   
    69    29    30 ar  
    70    29    69 1   
    71    30    31 ar  
    72    30    70 1   
    73    31    71 1   
    74    32    33 1   
    75    32    34 1   
    76    32    72 1   
    77    33    34 1   
    78    33    73 1   
    79    33    74 1   
    80    34    75 1   
    81    34    76 1   
    82    37    77 1   
    83    40    78 1   
    84    41    79 1   
@<TRIPOS>SUBSTRUCTURE
     1 846         1 TEMP              0 ****  ****    0 ROOT
