@<TRIPOS>MOLECULE
846
   79    84     1     0     0
SMALL
No Charge or Current Charge


@<TRIPOS>ATOM
      1 C1          -8.4250    14.9970    27.8620 c          1 846       0.615000
      2 C2          -8.4600    14.4420    30.2870 c3         1 846       0.140300
      3 C3         -10.2910    15.9100    29.3080 c3         1 846       0.112700
      4 C4         -10.2770    17.4490    29.1110 c3         1 846       0.179300
      5 C5         -10.0520    17.8790    27.6420 c3         1 846       0.122300
      6 C6          -8.6900    17.3920    27.0790 c3         1 846       0.107700
      7 C7          -8.4060    15.5260    25.4060 c3         1 846       0.128000
      8 C20         -8.5710    15.1140    31.6500 ca         1 846      -0.107300
      9 C21         -9.4890    14.6310    32.6030 ca         1 846      -0.073000
     10 C22         -9.6260    15.2610    33.8650 ca         1 846      -0.151600
     11 C23         -8.8140    16.3840    34.1470 ca         1 846      -0.046000
     12 C24         -7.8950    16.8630    33.1970 ca         1 846      -0.124000
     13 C25         -7.7730    16.2310    31.9510 ca         1 846      -0.065000
     14 C26        -10.6120    14.7790    34.9120 c          1 846       0.621700
     15 C27        -12.3270    13.0420    35.3100 cc         1 846       0.532300
     16 C28        -13.8540    11.4590    35.6090 cd         1 846       0.301900
     17 C29        -13.9940    12.1220    36.8040 cc         1 846      -0.315000
     18 C31        -11.4240    15.1440    28.5670 c3         1 846      -0.053100
     19 C32        -11.6070    13.7330    29.1130 ca         1 846      -0.088300
     20 C33        -11.0610    12.6250    28.4370 ca         1 846      -0.109000
     21 C34        -11.2090    11.3300    28.9630 ca         1 846      -0.115000
     22 C35        -11.9060    11.1350    30.1670 ca         1 846      -0.110000
     23 C36        -12.4550    12.2360    30.8450 ca         1 846      -0.115000
     24 C37        -12.3060    13.5310    30.3200 ca         1 846      -0.109000
     25 C61         -7.4270    17.9210    27.8200 c3         1 846      -0.046100
     26 C62         -6.1330    17.5800    27.0890 ca         1 846      -0.086300
     27 C63         -5.7700    18.2870    25.9260 ca         1 846      -0.105000
     28 C64         -4.5860    17.9650    25.2410 ca         1 846      -0.107500
     29 C65         -3.7580    16.9340    25.7150 ca         1 846      -0.110000
     30 C66         -4.1140    16.2260    26.8750 ca         1 846      -0.107500
     31 C67         -5.2980    16.5490    27.5610 ca         1 846      -0.105000
     32 C70         -9.6720    15.6380    24.5650 cx         1 846      -0.149700
     33 C71         -9.8830    14.7590    23.3550 cx         1 846      -0.125900
     34 C72        -10.7190    14.5490    24.5960 cx         1 846      -0.125900
     35 N2          -8.9520    15.2600    29.1480 n          1 846      -0.410800
     36 N7          -8.6400    15.9260    26.8160 n          1 846      -0.419800
     37 N26        -11.3600    13.6770    34.5810 ns         1 846      -0.466400
     38 N27        -12.8980    11.9890    34.7540 nd         1 846      -0.713000
     39 O1          -7.7890    13.9710    27.6600 o          1 846      -0.591000
     40 O4         -11.5090    18.0350    29.5640 oh         1 846      -0.663000
     41 O5         -10.1580    19.3180    27.5530 oh         1 846      -0.670000
     42 O26        -10.7300    15.3470    35.9870 o          1 846      -0.576100
     43 S29        -12.9040    13.4730    36.9090 ss         1 846       0.061600
     44 H21A        -7.4010    14.2000    30.1230 h1         1 846       0.065700
     45 H22         -9.0070    13.4910    30.2960 h1         1 846       0.065700
     46 H3         -10.5660    15.8080    30.3640 h1         1 846       0.078700
     47 H4          -9.4560    17.8500    29.7190 h1         1 846       0.053700
     48 H5         -10.8410    17.4250    27.0280 h1         1 846       0.054700
     49 H6          -8.6350    17.8680    26.0910 h1         1 846       0.050700
     50 H71         -8.0340    14.4950    25.3490 h1         1 846       0.066200
     51 H72         -7.6250    16.1660    24.9740 h1         1 846       0.066200
     52 H21        -10.0950    13.7680    32.3370 ha         1 846       0.120000
     53 H23         -8.8920    16.8940    35.1050 ha         1 846       0.139000
     54 H24         -7.2780    17.7280    33.4290 ha         1 846       0.122000
     55 H25         -7.0640    16.6100    31.2190 ha         1 846       0.121000
     56 H28        -14.4190    10.5860    35.3040 h4         1 846       0.039100
     57 H29        -14.6650    11.9030    37.6230 h4         1 846       0.160000
     58 H311       -12.3670    15.6920    28.6770 hc         1 846       0.067200
     59 H312       -11.2200    15.1170    27.4910 hc         1 846       0.067200
     60 H33        -10.5110    12.7670    27.5090 ha         1 846       0.116000
     61 H34        -10.7810    10.4780    28.4380 ha         1 846       0.118000
     62 H35        -12.0200    10.1320    30.5740 ha         1 846       0.116000
     63 H36        -12.9970    12.0850    31.7770 ha         1 846       0.118000
     64 H37        -12.7300    14.3790    30.8540 ha         1 846       0.116000
     65 H611        -7.5030    19.0090    27.9290 hc         1 846       0.065200
     66 H612        -7.3950    17.5220    28.8390 hc         1 846       0.065200
     67 H63         -6.4070    19.0850    25.5510 ha         1 846       0.111000
     68 H64         -4.3110    18.5130    24.3420 ha         1 846       0.113500
     69 H65         -2.8420    16.6830    25.1840 ha         1 846       0.113000
     70 H66         -3.4740    15.4260    27.2430 ha         1 846       0.113500
     71 H67         -5.5680    15.9910    28.4550 ha         1 846       0.111000
     72 H70        -10.0350    16.6610    24.4900 hc         1 846       0.069700
     73 H711       -10.3660    15.1990    22.4860 hc         1 846       0.073450
     74 H712        -9.1250    14.0130    23.1240 hc         1 846       0.073450
     75 H721       -10.5190    13.6640    25.1950 hc         1 846       0.073450
     76 H722       -11.7630    14.8500    24.5630 hc         1 846       0.073450
     77 HN6        -11.1720    13.2820    33.6760 hn         1 846       0.344500
     78 HO4        -11.5320    18.9110    29.1130 ho         1 846       0.465000
     79 HO5        -10.1540    19.5590    26.5990 ho         1 846       0.451000
@<TRIPOS>BOND
     1     1    35 1   
     2     1    36 1   
     3     1    39 2   
     4     2     8 1   
     5     2    35 1   
     6     2    44 1   
     7     2    45 1   
     8     3     4 1   
     9     3    18 1   
    10     3    35 1   
    11     3    46 1   
    12     4     5 1   
    13     4    40 1   
    14     4    47 1   
    15     5     6 1   
    16     5    41 1   
    17     5    48 1   
    18     6    25 1   
    19     6    36 1   
    20     6    49 1   
    21     7    32 1   
    22     7    36 1   
    23     7    50 1   
    24     7    51 1   
    25     8     9 ar  
    26     8    13 ar  
    27     9    10 ar  
    28     9    52 1   
    29    10    11 ar  
    30    10    14 1   
    31    11    12 ar  
    32    11    53 1   
    33    12    13 ar  
    34    12    54 1   
    35    13    55 1   
    36    14    37 1   
    37    14    42 2   
    38    15    37 1   
    39    15    38 2   
    40    15    43 1   
    41    16    17 2   
    42    16    38 1   
    43    16    56 1   
    44    17    43 1   
    45    17    57 1   
    46    18    19 1   
    47    18    58 1   
    48    18    59 1   
    49    19    20 ar  
    50    19    24 ar  
    51    20    21 ar  
    52    20    60 1   
    53    21    22 ar  
    54    21    61 1   
    55    22    23 ar  
    56    22    62 1   
    57    23    24 ar  
    58    23    63 1   
    59    24    64 1   
    60    25    26 1   
    61    25    65 1   
    62    25    66 1   
    63    26    27 ar  
    64    26    31 ar  
    65    27    28 ar  
    66    27    67 1   
    67    28    29 ar  
    68    28    68 1   
    69    29    30 ar  
    70    29    69 1   
    71    30    31 ar  
    72    30    70 1   
    73    31    71 1   
    74    32    33 1   
    75    32    34 1   
    76    32    72 1   
    77    33    34 1   
    78    33    73 1   
    79    33    74 1   
    80    34    75 1   
    81    34    76 1   
    82    37    77 1   
    83    40    78 1   
    84    41    79 1   
@<TRIPOS>SUBSTRUCTURE
     1 846         1 TEMP              0 ****  ****    0 ROOT
