@<TRIPOS>MOLECULE
847
   41    43     1     0     0
SMALL
No Charge or Current Charge


@<TRIPOS>ATOM
      1 C1           5.9980    -0.7170    -0.0350 ca         1 847      -0.282900
      2 C2           6.0640     0.6980    -0.1920 ca         1 847      -0.106000
      3 C3           4.8910     1.4760    -0.2980 ca         1 847      -0.135000
      4 C4           3.6620     0.8140    -0.2440 ca         1 847       0.016000
      5 C5           3.5730    -0.5610    -0.0920 ca         1 847      -0.016000
      6 C6           4.7260    -1.3500     0.0150 ca         1 847      -0.118000
      7 C7           7.2470    -1.5250     0.0750 ce         1 847       0.470400
      8 N1           7.2510    -2.8310    -0.3290 nv         1 847      -0.610700
      9 N2           8.3810    -0.9590     0.5860 nv         1 847      -0.594800
     10 N3           2.3850     1.3320    -0.3210 na         1 847      -0.277900
     11 N4           2.2420    -0.9470    -0.0670 nc         1 847      -0.363600
     12 C8           1.5590     0.2360    -0.2100 cc         1 847       0.268500
     13 C9           0.1790     0.4430    -0.2530 cd         1 847      -0.277200
     14 C10         -0.6200    -0.7570    -0.1290 cd         1 847      -0.107000
     15 C11         -2.0040    -0.6730    -0.1580 cc         1 847      -0.083200
     16 CVX         -2.8850    -1.9070    -0.0270 c3         1 847      -0.122500
     17 CWX         -3.6590    -2.2610    -1.3290 c          1 847       0.744000
     18 OXX         -3.3590    -3.2950    -1.9120 o          1 847      -0.730500
     19 OYX         -4.4780    -1.4640    -1.7680 o          1 847      -0.730500
     20 C6X         -3.8210    -1.8340     1.2210 c3         1 847      -0.160400
     21 C7X         -4.4390    -3.2180     1.5220 c          1 847       0.732000
     22 O8X         -3.8060    -3.9960     2.2210 o          1 847      -0.764000
     23 O9X         -5.5240    -3.4910     1.0300 o          1 847      -0.764000
     24 C12         -2.6390     0.6140    -0.3130 cc         1 847      -0.020000
     25 C13         -1.9250     1.7860    -0.4340 cd         1 847      -0.214500
     26 C14         -0.4430     1.7920    -0.4130 c          1 847       0.580500
     27 O6           0.1930     2.8400    -0.5220 o          1 847      -0.746100
     28 Br5         -2.8310     3.4420    -0.6340 br         1 847      -0.176700
     29 HC2          7.0260     1.2030    -0.2450 ha         1 847       0.079000
     30 HC3          4.9440     2.5550    -0.4200 ha         1 847       0.115000
     31 HC6          4.6280    -2.4250     0.1460 ha         1 847       0.116000
     32 HH11         8.1400    -3.2990    -0.4440 hn         1 847       0.349500
     33 HH12         6.4640    -3.1610    -0.8720 hn         1 847       0.349500
     34 HH21         8.2930    -0.0610     1.0430 hn         1 847       0.349500
     35 HH22         9.1470    -1.5600     0.8580 hn         1 847       0.349500
     36 HN3          2.0770     2.2940    -0.4330 hn         1 847       0.417000
     37 H1          -0.1580    -1.7340    -0.0120 ha         1 847       0.187000
     38 H31B        -2.2160    -2.7560     0.1570 hc         1 847       0.053700
     39 H42A        -3.1690    -1.5310     2.0510 hc         1 847       0.002200
     40 H42B        -4.6040    -1.1010     0.9930 hc         1 847       0.002200
     41 HC4         -3.7250     0.6510    -0.3350 ha         1 847       0.219000
@<TRIPOS>BOND
     1     1     2 ar  
     2     1     6 ar  
     3     1     7 1   
     4     2     3 ar  
     5     2    29 1   
     6     3     4 ar  
     7     3    30 1   
     8     4     5 ar  
     9     4    10 2   
    10     5     6 ar  
    11     5    11 2   
    12     6    31 1   
    13     7     8 2   
    14     7     9 1   
    15     8    32 1   
    16     8    33 1   
    17     9    34 1   
    18     9    35 1   
    19    10    12 1   
    20    10    36 1   
    21    11    12 1   
    22    12    13 2   
    23    13    14 1   
    24    13    26 1   
    25    14    15 2   
    26    14    37 1   
    27    15    16 1   
    28    15    24 1   
    29    16    17 1   
    30    16    20 1   
    31    16    38 1   
    32    17    18 1   
    33    17    19 1   
    34    20    21 1   
    35    20    39 1   
    36    20    40 1   
    37    21    22 1   
    38    21    23 1   
    39    24    25 2   
    40    24    41 1   
    41    25    26 1   
    42    25    28 1   
    43    26    27 2   
@<TRIPOS>SUBSTRUCTURE
     1 847         1 TEMP              0 ****  ****    0 ROOT
