@<TRIPOS>MOLECULE
847
   41    43     1     0     0
SMALL
bcc


@<TRIPOS>ATOM
      1 C1           5.9750    -0.6720    -0.0100 ca         1 847      -0.282900
      2 C2           6.0720     0.7210    -0.1860 ca         1 847      -0.124000
      3 C3           4.9420     1.5050    -0.3170 ca         1 847      -0.153000
      4 C4           3.7130     0.8620    -0.2570 ca         1 847       0.016000
      5 C5           3.5950    -0.5340    -0.0700 ca         1 847      -0.016000
      6 C6           4.7380    -1.3120     0.0480 ca         1 847      -0.136000
      7 C7           7.1990    -1.4680     0.1120 ce         1 847       0.470400
      8 N1           7.2340    -2.6840    -0.3840 nv         1 847      -0.510100
      9 N2           8.2490    -0.9610     0.7140 nv         1 847      -0.494200
     10 N3           2.4330     1.3020    -0.3420 na         1 847      -0.227600
     11 N4           2.2790    -0.8980    -0.0400 nc         1 847      -0.363600
     12 C8           1.6070     0.2240    -0.2110 cc         1 847       0.268500
     13 C9           0.1690     0.3610    -0.2710 cd         1 847      -0.277200
     14 C10         -0.6250    -0.7810    -0.1030 cd         1 847      -0.057000
     15 C11         -2.0030    -0.7490    -0.1600 cc         1 847      -0.083200
     16 CVX         -2.8430    -1.9900     0.0300 c3         1 847      -0.122500
     17 CWX         -3.6280    -2.2640    -1.2690 c          1 847       0.954600
     18 OXX         -3.0300    -2.8940    -2.1650 o          1 847      -0.835800
     19 OYX         -4.7820    -1.7920    -1.3480 o          1 847      -0.835800
     20 C6X         -3.7520    -1.8750     1.2470 c3         1 847      -0.160400
     21 C7X         -4.6580    -3.0910     1.4800 c          1 847       0.942600
     22 O8X         -4.2770    -4.1890     1.0230 o          1 847      -0.869300
     23 O9X         -5.6960    -2.8980     2.1510 o          1 847      -0.869300
     24 C12         -2.6020     0.4970    -0.4100 cc         1 847       0.030000
     25 C13         -1.8390     1.6280    -0.5690 cd         1 847      -0.214500
     26 C14         -0.4080     1.6550    -0.5100 c          1 847       0.580500
     27 O6           0.2600     2.7180    -0.6600 o          1 847      -0.746100
     28 BR5         -2.6930     3.2900    -0.9000 br         1 847      -0.176700
     29 HC2          7.0430     1.1930    -0.2580 ha         1 847       0.097000
     30 HC3          5.0230     2.5730    -0.4670 ha         1 847       0.133000
     31 HC6          4.6540    -2.3790     0.2120 ha         1 847       0.134000
     32 HH11         8.0300    -3.2910    -0.2610 hn         1 847       0.299200
     33 HH12         6.4890    -3.0230    -0.9710 hn         1 847       0.299200
     34 HH21         8.1840    -0.0910     1.2180 hn         1 847       0.299200
     35 HH22         9.1310    -1.4490     0.7590 hn         1 847       0.299200
     36 HN3          2.0370     2.2300    -0.4920 hn         1 847       0.366700
     37 H1          -0.1250    -1.7240     0.0850 ha         1 847       0.137000
     38 H31B        -2.1540    -2.8250     0.1860 hc         1 847       0.053700
     39 H42A        -3.1280    -1.7450     2.1420 hc         1 847       0.002200
     40 H42B        -4.3670    -0.9750     1.1860 hc         1 847       0.002200
     41 HC4         -3.6810     0.5570    -0.4850 ha         1 847       0.169000
@<TRIPOS>BOND
     1     1     2 ar  
     2     1     6 ar  
     3     1     7 1   
     4     2     3 ar  
     5     2    29 1   
     6     3     4 ar  
     7     3    30 1   
     8     4     5 ar  
     9     4    10 2   
    10     5     6 ar  
    11     5    11 2   
    12     6    31 1   
    13     7     8 2   
    14     7     9 1   
    15     8    32 1   
    16     8    33 1   
    17     9    34 1   
    18     9    35 1   
    19    10    12 1   
    20    10    36 1   
    21    11    12 1   
    22    12    13 2   
    23    13    14 1   
    24    13    26 1   
    25    14    15 2   
    26    14    37 1   
    27    15    16 1   
    28    15    24 1   
    29    16    17 1   
    30    16    20 1   
    31    16    38 1   
    32    17    18 1   
    33    17    19 1   
    34    20    21 1   
    35    20    39 1   
    36    20    40 1   
    37    21    22 1   
    38    21    23 1   
    39    24    25 2   
    40    24    41 1   
    41    25    26 1   
    42    25    28 1   
    43    26    27 2   
@<TRIPOS>SUBSTRUCTURE
     1 847         1 TEMP              0 ****  ****    0 ROOT
