@<TRIPOS>MOLECULE
848
   27    28     1     0     0
SMALL
No Charge or Current Charge


@<TRIPOS>ATOM
      1 N1           2.0090     2.2680     0.0530 nv         1 848      -1.052000
      2 C2           2.5290     0.9910     0.0340 ca         1 848       0.261000
      3 C3           3.9250     0.8260     0.0400 ca         1 848      -0.154000
      4 C7           1.6820    -0.1510     0.0080 ca         1 848       0.078100
      5 C6           2.2600    -1.4430    -0.0110 ca         1 848      -0.159000
      6 C5           3.6580    -1.5920    -0.0040 ca         1 848      -0.118000
      7 C4           4.4890    -0.4610     0.0210 ca         1 848      -0.103000
      8 O8           0.3060     0.0330    -0.0020 os         1 848      -0.353100
      9 C9          -0.6190    -1.0660    -0.0290 c3         1 848       0.218900
     10 C10         -2.0280    -0.5010    -0.0310 ca         1 848      -0.144300
     11 C15         -2.7090    -0.2520    -1.2370 ca         1 848      -0.050000
     12 C14         -4.0110     0.2710    -1.1680 ca         1 848      -0.169000
     13 C13         -4.5830     0.5260     0.0900 ca         1 848       0.342900
     14 N12         -3.9330     0.2910     1.2540 nb         1 848      -0.665000
     15 C11         -2.6770    -0.2120     1.1840 ca         1 848       0.352900
     16 HN1          2.6130     3.0710    -0.1040 hn         1 848       0.445000
     17 HN1A         1.0060     2.3900    -0.0750 hn         1 848       0.445000
     18 H3           4.5760     1.6950     0.0600 ha         1 848       0.113000
     19 H6           1.6460    -2.3390    -0.0320 ha         1 848       0.113000
     20 H5           4.0980    -2.5870    -0.0190 ha         1 848       0.113000
     21 H4           5.5700    -0.5810     0.0260 ha         1 848       0.113000
     22 H9          -0.4680    -1.6780    -0.9270 h1         1 848       0.041700
     23 H9A         -0.4840    -1.7080     0.8520 h1         1 848       0.041700
     24 H15         -2.2430    -0.4570    -2.1990 ha         1 848       0.122000
     25 H14         -4.5750     0.4780    -2.0730 ha         1 848       0.125000
     26 H13         -5.5910     0.9310     0.1700 h4         1 848       0.020100
     27 H11         -2.1770    -0.3900     2.1360 h4         1 848       0.020100
@<TRIPOS>BOND
     1     1     2 1   
     2     1    16 1   
     3     1    17 1   
     4     2     3 ar  
     5     2     4 ar  
     6     3     7 ar  
     7     3    18 1   
     8     4     5 ar  
     9     4     8 1   
    10     5     6 ar  
    11     5    19 1   
    12     6     7 ar  
    13     6    20 1   
    14     7    21 1   
    15     8     9 1   
    16     9    10 1   
    17     9    22 1   
    18     9    23 1   
    19    10    11 ar  
    20    10    15 ar  
    21    11    12 ar  
    22    11    24 1   
    23    12    13 ar  
    24    12    25 1   
    25    13    14 ar  
    26    13    26 1   
    27    14    15 ar  
    28    15    27 1   
@<TRIPOS>SUBSTRUCTURE
     1 848         1 TEMP              0 ****  ****    0 ROOT
