@<TRIPOS>MOLECULE
848
   27    28     1     0     0
SMALL
abcg2


@<TRIPOS>ATOM
      1 N1           1.8480     2.2190    -0.1910 nv         1 848      -1.052000
      2 C2           2.4400     0.9700    -0.1180 ca         1 848       0.261000
      3 C3           3.8210     0.8070    -0.1700 ca         1 848      -0.154000
      4 C7           1.6430    -0.1780     0.0720 ca         1 848       0.078100
      5 C6           2.2290    -1.4280     0.1970 ca         1 848      -0.159000
      6 C5           3.6150    -1.5660     0.1450 ca         1 848      -0.118000
      7 C4           4.4070    -0.4480    -0.0370 ca         1 848      -0.103000
      8 O8           0.3090     0.0590     0.1180 os         1 848      -0.353100
      9 C9          -0.5740    -1.0450     0.1630 c3         1 848       0.218900
     10 C10         -1.9710    -0.5120     0.0760 ca         1 848      -0.144300
     11 C15         -2.4060     0.2050    -1.0340 ca         1 848      -0.050000
     12 C14         -3.7090     0.6710    -1.0630 ca         1 848      -0.169000
     13 C13         -4.5340     0.4000     0.0210 ca         1 848       0.342900
     14 N12         -4.1340    -0.2810     1.0860 nb         1 848      -0.665000
     15 C11         -2.8800    -0.7190     1.1050 ca         1 848       0.352900
     16 HN1          2.4250     2.9230    -0.6240 hn         1 848       0.445000
     17 HN1A         0.9160     2.2310    -0.5740 hn         1 848       0.445000
     18 H3           4.4450     1.6810    -0.3200 ha         1 848       0.113000
     19 H6           1.6190    -2.3100     0.3420 ha         1 848       0.113000
     20 H5           4.0570    -2.5490     0.2460 ha         1 848       0.113000
     21 H4           5.4850    -0.5400    -0.0820 ha         1 848       0.113000
     22 H9          -0.3760    -1.7270    -0.6730 h1         1 848       0.041700
     23 H9A         -0.4460    -1.6150     1.0890 h1         1 848       0.041700
     24 H15         -1.7380     0.3930    -1.8650 ha         1 848       0.122000
     25 H14         -4.0860     1.2300    -1.9080 ha         1 848       0.125000
     26 H13         -5.5610     0.7500     0.0260 h4         1 848       0.020100
     27 H11         -2.5750    -1.2710     1.9900 h4         1 848       0.020100
@<TRIPOS>BOND
     1     1     2 1   
     2     1    16 1   
     3     1    17 1   
     4     2     3 ar  
     5     2     4 ar  
     6     3     7 ar  
     7     3    18 1   
     8     4     5 ar  
     9     4     8 1   
    10     5     6 ar  
    11     5    19 1   
    12     6     7 ar  
    13     6    20 1   
    14     7    21 1   
    15     8     9 1   
    16     9    10 1   
    17     9    22 1   
    18     9    23 1   
    19    10    11 ar  
    20    10    15 ar  
    21    11    12 ar  
    22    11    24 1   
    23    12    13 ar  
    24    12    25 1   
    25    13    14 ar  
    26    13    26 1   
    27    14    15 ar  
    28    15    27 1   
@<TRIPOS>SUBSTRUCTURE
     1 848         1 TEMP              0 ****  ****    0 ROOT
