@<TRIPOS>MOLECULE
849
   56    59     1     0     0
SMALL
abcg2


@<TRIPOS>ATOM
      1 C1          -0.0480    -0.8640     0.4680 ca         1 849      -0.038000
      2 C2          -1.2210    -0.2630     0.0550 ca         1 849      -0.111300
      3 C3          -1.1610     0.9690    -0.6350 ca         1 849      -0.077000
      4 C4           0.0300     1.6090    -0.9060 ca         1 849      -0.134000
      5 C5           1.1780    -0.2420     0.1970 ca         1 849      -0.131800
      6 C6           1.2070     0.9970    -0.4760 ca         1 849      -0.029200
      7 N7           2.5060     1.3880    -0.5870 na         1 849      -0.214700
      8 C8           3.3370     0.4390    -0.0320 cc         1 849      -0.034300
      9 C9           2.5350    -0.5540     0.4550 cd         1 849       0.128300
     10 C10          4.7820     0.6360     0.0340 ca         1 849      -0.075800
     11 C11         -2.5540    -0.9120     0.3330 c6         1 849      -0.008400
     12 C12         -3.2930    -1.3070    -0.9500 c6         1 849      -0.107400
     13 C13         -4.6520    -1.9220    -0.6170 c6         1 849       0.168300
     14 N14         -5.5050    -1.0770     0.2010 n3         1 849      -0.726600
     15 C15         -4.8170    -0.7050     1.4290 c6         1 849       0.168300
     16 C16         -3.4620    -0.0350     1.2020 c6         1 849      -0.107400
     17 C17         -6.0820     0.0480    -0.5170 c3         1 849       0.169800
     18 C18         -7.4120     0.4830     0.0820 c3         1 849       0.153800
     19 N19         -7.9510     1.6130    -0.6480 n7         1 849      -0.862400
     20 C20         -9.2270     2.0570    -0.1290 c3         1 849       0.147100
     21 C21          5.6750    -0.3930    -0.3130 ca         1 849       0.171100
     22 C22          7.0480    -0.1740    -0.2300 ca         1 849      -0.203000
     23 C23          7.5340     1.0630     0.1740 ca         1 849      -0.061000
     24 C24          6.6650     2.0930     0.4970 ca         1 849      -0.151000
     25 C25          5.2980     1.8700     0.4260 ca         1 849      -0.067000
     26 O26          5.1250    -1.5410    -0.7350 os         1 849      -0.326100
     27 C27          5.9730    -2.6180    -1.0830 c3         1 849       0.147900
     28 F28          2.9500    -1.6320     1.1270 f          1 849      -0.148500
     29 H1          -0.0770    -1.8100     0.9970 ha         1 849       0.121000
     30 H3          -2.0820     1.4350    -0.9640 ha         1 849       0.110000
     31 H11         -2.3590    -1.8360     0.8920 hc         1 849       0.049700
     32 H4           0.0480     2.5550    -1.4330 ha         1 849       0.114000
     33 H7           2.8300     2.1930    -1.0970 hn         1 849       0.353000
     34 H25          4.6120     2.6630     0.6980 ha         1 849       0.115000
     35 H121        -3.4240    -0.4320    -1.5960 hc         1 849       0.046200
     36 H122        -2.6960    -2.0250    -1.5180 hc         1 849       0.046200
     37 H161        -2.9840     0.1600     2.1650 hc         1 849       0.046200
     38 H162        -3.6060     0.9410     0.7280 hc         1 849       0.046200
     39 H131        -5.1860    -2.1810    -1.5340 h1         1 849       0.050450
     40 H132        -4.4890    -2.8620    -0.0760 h1         1 849       0.050450
     41 H151        -5.4600    -0.0530     2.0220 h1         1 849       0.050450
     42 H152        -4.6720    -1.6130     2.0250 h1         1 849       0.050450
     43 H171        -5.4080     0.9180    -0.5720 h1         1 849       0.035700
     44 H172        -6.2600    -0.2590    -1.5500 h1         1 849       0.035700
     45 H181        -8.1190    -0.3490     0.0110 h1         1 849       0.035700
     46 H182        -7.2980     0.6970     1.1570 h1         1 849       0.035700
     47 H19         -7.2920     2.3800    -0.5940 hn         1 849       0.402000
     48 H201        -9.9780     1.2780    -0.2740 h1         1 849       0.028700
     49 H202        -9.2170     2.3050     0.9420 h1         1 849       0.028700
     50 H203        -9.5630     2.9400    -0.6730 h1         1 849       0.028700
     51 H22          7.7520    -0.9540    -0.4850 ha         1 849       0.120000
     52 H23          8.6040     1.2150     0.2310 ha         1 849       0.113000
     53 H24          7.0430     3.0560     0.8120 ha         1 849       0.118000
     54 H271         6.6400    -2.3620    -1.9100 h1         1 849       0.042700
     55 H272         6.5740    -2.9530    -0.2340 h1         1 849       0.042700
     56 H273         5.3230    -3.4310    -1.3960 h1         1 849       0.042700
@<TRIPOS>BOND
     1     1     2 ar  
     2     1     5 ar  
     3     1    29 1   
     4     2     3 ar  
     5     2    11 1   
     6     3     4 ar  
     7     3    30 1   
     8     4     6 ar  
     9     4    32 1   
    10     5     6 ar  
    11     5     9 1   
    12     6     7 1   
    13     7     8 1   
    14     7    33 1   
    15     8     9 2   
    16     8    10 1   
    17     9    28 1   
    18    10    21 ar  
    19    10    25 ar  
    20    11    12 1   
    21    11    16 1   
    22    11    31 1   
    23    12    13 1   
    24    12    35 1   
    25    12    36 1   
    26    13    14 1   
    27    13    39 1   
    28    13    40 1   
    29    14    15 1   
    30    14    17 1   
    31    15    16 1   
    32    15    41 1   
    33    15    42 1   
    34    16    37 1   
    35    16    38 1   
    36    17    18 1   
    37    17    43 1   
    38    17    44 1   
    39    18    19 1   
    40    18    45 1   
    41    18    46 1   
    42    19    20 1   
    43    19    47 1   
    44    20    48 1   
    45    20    49 1   
    46    20    50 1   
    47    21    22 ar  
    48    21    26 1   
    49    22    23 ar  
    50    22    51 1   
    51    23    24 ar  
    52    23    52 1   
    53    24    25 ar  
    54    24    53 1   
    55    25    34 1   
    56    26    27 1   
    57    27    54 1   
    58    27    55 1   
    59    27    56 1   
@<TRIPOS>SUBSTRUCTURE
     1 849         1 TEMP              0 ****  ****    0 ROOT
