@<TRIPOS>MOLECULE
849
   56    59     1     0     0
SMALL
No Charge or Current Charge


@<TRIPOS>ATOM
      1 C1          -0.0450    -0.8480     0.3680 ca         1 849      -0.038000
      2 C2          -1.2810    -0.2990    -0.0500 ca         1 849      -0.111300
      3 C3          -1.2970     0.9350    -0.7570 ca         1 849      -0.077000
      4 C4          -0.0970     1.6220    -1.0470 ca         1 849      -0.134000
      5 C5           1.1230    -0.1420     0.0580 ca         1 849      -0.131800
      6 C6           1.1050     1.0480    -0.6210 ca         1 849      -0.029200
      7 N7           2.4030     1.5230    -0.7680 na         1 849      -0.214700
      8 C8           3.3020     0.5990    -0.2000 cc         1 849      -0.034300
      9 C9           2.5120    -0.4090     0.3360 cd         1 849       0.128300
     10 C10          4.7460     0.7380     0.0020 ca         1 849      -0.075800
     11 C11         -2.5890    -1.0400     0.2650 c6         1 849      -0.008400
     12 C12         -3.3430    -1.4700    -1.0220 c6         1 849      -0.107400
     13 C13         -4.6820    -2.1750    -0.6770 c6         1 849       0.168300
     14 N14         -5.5590    -1.3250     0.1790 n3         1 849      -0.726600
     15 C15         -4.8550    -0.9630     1.4470 c6         1 849       0.168300
     16 C16         -3.5270    -0.2080     1.1800 c6         1 849      -0.107400
     17 C17         -6.1660    -0.1750    -0.5580 c3         1 849       0.169800
     18 C18         -7.2630     0.6130     0.2170 c3         1 849       0.153800
     19 N19         -7.8890     1.6630    -0.6250 n7         1 849      -0.862400
     20 C20         -8.9640     2.4310     0.0320 c3         1 849       0.147100
     21 C21          5.6450    -0.3230    -0.2700 ca         1 849       0.171100
     22 C22          7.0300    -0.1370    -0.0530 ca         1 849      -0.203000
     23 C23          7.5160     1.0920     0.4210 ca         1 849      -0.061000
     24 C24          6.6260     2.1470     0.6730 ca         1 849      -0.151000
     25 C25          5.2490     1.9720     0.4610 ca         1 849      -0.067000
     26 O26          5.1450    -1.5070    -0.7810 os         1 849      -0.326100
     27 C27          5.9830    -2.6370    -1.0790 c3         1 849       0.147900
     28 F28          2.9500    -1.4270     1.1000 f          1 849      -0.148500
     29 H1           0.0050    -1.7890     0.9130 ha         1 849       0.121000
     30 H3          -2.2420     1.3650    -1.0820 ha         1 849       0.110000
     31 H11         -2.3380    -1.9600     0.8130 hc         1 849       0.049700
     32 H4          -0.1100     2.5670    -1.5840 ha         1 849       0.114000
     33 H7           2.6590     2.4010    -1.2050 hn         1 849       0.353000
     34 H25          4.5690     2.7950     0.6670 ha         1 849       0.115000
     35 H121        -3.5350    -0.6020    -1.6660 hc         1 849       0.046200
     36 H122        -2.7130    -2.1520    -1.6090 hc         1 849       0.046200
     37 H161        -3.0250    -0.0040     2.1360 hc         1 849       0.046200
     38 H162        -3.7380     0.7710     0.7310 hc         1 849       0.046200
     39 H131        -5.1990    -2.4480    -1.6090 h1         1 849       0.050450
     40 H132        -4.4570    -3.1180    -0.1570 h1         1 849       0.050450
     41 H151        -5.4970    -0.3560     2.1010 h1         1 849       0.050450
     42 H152        -4.6240    -1.8780     2.0130 h1         1 849       0.050450
     43 H171        -5.3880     0.5360    -0.8660 h1         1 849       0.035700
     44 H172        -6.6280    -0.5530    -1.4800 h1         1 849       0.035700
     45 H181        -8.0260    -0.1000     0.5580 h1         1 849       0.035700
     46 H182        -6.8150     1.0710     1.1090 h1         1 849       0.035700
     47 H19         -7.1550     2.3240    -0.9120 hn         1 849       0.402000
     48 H201        -9.7810     1.7680     0.3490 h1         1 849       0.028700
     49 H202        -8.5850     2.9580     0.9180 h1         1 849       0.028700
     50 H203        -9.3810     3.1790    -0.6570 h1         1 849       0.028700
     51 H22          7.7450    -0.9300    -0.2520 ha         1 849       0.120000
     52 H23          8.5830     1.2300     0.5850 ha         1 849       0.113000
     53 H24          7.0030     3.1010     1.0350 ha         1 849       0.118000
     54 H271         6.7290    -2.3790    -1.8420 h1         1 849       0.042700
     55 H272         6.5030    -2.9860    -0.1780 h1         1 849       0.042700
     56 H273         5.3780    -3.4670    -1.4640 h1         1 849       0.042700
@<TRIPOS>BOND
     1     1     2 ar  
     2     1     5 ar  
     3     1    29 1   
     4     2     3 ar  
     5     2    11 1   
     6     3     4 ar  
     7     3    30 1   
     8     4     6 ar  
     9     4    32 1   
    10     5     6 ar  
    11     5     9 1   
    12     6     7 1   
    13     7     8 1   
    14     7    33 1   
    15     8     9 2   
    16     8    10 1   
    17     9    28 1   
    18    10    21 ar  
    19    10    25 ar  
    20    11    12 1   
    21    11    16 1   
    22    11    31 1   
    23    12    13 1   
    24    12    35 1   
    25    12    36 1   
    26    13    14 1   
    27    13    39 1   
    28    13    40 1   
    29    14    15 1   
    30    14    17 1   
    31    15    16 1   
    32    15    41 1   
    33    15    42 1   
    34    16    37 1   
    35    16    38 1   
    36    17    18 1   
    37    17    43 1   
    38    17    44 1   
    39    18    19 1   
    40    18    45 1   
    41    18    46 1   
    42    19    20 1   
    43    19    47 1   
    44    20    48 1   
    45    20    49 1   
    46    20    50 1   
    47    21    22 ar  
    48    21    26 1   
    49    22    23 ar  
    50    22    51 1   
    51    23    24 ar  
    52    23    52 1   
    53    24    25 ar  
    54    24    53 1   
    55    25    34 1   
    56    26    27 1   
    57    27    54 1   
    58    27    55 1   
    59    27    56 1   
@<TRIPOS>SUBSTRUCTURE
     1 849         1 TEMP              0 ****  ****    0 ROOT
