@<TRIPOS>MOLECULE
84C
   77    79     1     0     0
SMALL
No Charge or Current Charge


@<TRIPOS>ATOM
      1 N1          15.8660     4.5510   -27.4450 ns         1 84C      -0.514900
      2 N3          22.0940     5.8520   -29.9320 n          1 84C      -0.377800
      3 C4          18.0800     4.1420   -26.8940 c5         1 84C      -0.155700
      4 C5          18.9380     3.5250   -25.7510 c3         1 84C      -0.070400
      5 C6          20.3460     4.1530   -25.5720 c3         1 84C       0.106700
      6 C8          22.1750     4.8080   -28.8710 c5         1 84C       0.028700
      7 C10         24.2910     4.9300   -30.1060 c5         1 84C      -0.079700
      8 C13         24.0650     3.1470   -28.4280 c5         1 84C      -0.076400
      9 C1          16.6770     3.5350   -27.0180 c          1 84C       0.564000
     10 C11         24.0570     3.5770   -30.8370 c5         1 84C      -0.076400
     11 C12         24.6530     2.6170   -29.7770 c5         1 84C      -0.080400
     12 C14         23.7250     4.6580   -28.6930 c5         1 84C      -0.071700
     13 C16         20.8230     7.5970   -31.3350 c3         1 84C       0.059700
     14 C2          16.5540     5.8150   -27.6970 c5         1 84C       0.099000
     15 C3          17.7800     5.6610   -26.7560 c5         1 84C      -0.088400
     16 C9          23.3480     6.0060   -30.7110 c5         1 84C       0.114000
     17 N2          21.0790     4.1230   -26.8440 ns         1 84C      -0.503900
     18 N4          19.6210     7.4880   -32.1910 ns         1 84C      -0.483900
     19 O1          16.2510     2.4650   -26.6130 o          1 84C      -0.565000
     20 C17         19.5760     7.7540   -33.5290 c          1 84C       0.649100
     21 C18         17.8910     7.7430   -35.3330 c3         1 84C       0.224000
     22 C19         18.6670     6.7660   -36.2550 c3         1 84C      -0.108767
     23 C20         16.3870     7.3930   -35.3430 c3         1 84C      -0.108767
     24 C21         18.0900     9.2310   -35.7190 c3         1 84C      -0.108767
     25 C22         20.8550     8.9660   -30.5730 c3         1 84C      -0.064700
     26 C23         22.1290     9.1650   -29.7170 c3         1 84C      -0.093600
     27 C24         20.6570    10.1880   -31.5070 c3         1 84C      -0.093600
     28 C25         21.1840     3.4870   -24.4470 c3         1 84C       0.149600
     29 O3          19.8070     5.8760   -29.9450 o          1 84C      -0.628100
     30 O4          20.5320     8.1080   -34.1990 o          1 84C      -0.560000
     31 O5          18.2950     7.5390   -33.9590 os         1 84C      -0.473100
     32 O6          20.5480     3.6370   -23.1680 oh         1 84C      -0.657000
     33 H1          14.8670     4.3890   -27.5120 hn         1 84C       0.323500
     34 H6          18.5750     3.9820   -27.8590 hc         1 84C       0.088700
     35 H7          18.3910     3.6140   -24.8040 hc         1 84C       0.064700
     36 H8          19.0570     2.4490   -25.9300 hc         1 84C       0.064700
     37 H9          20.2020     5.2020   -25.2790 h1         1 84C       0.092700
     38 H11         21.6890     3.8870   -29.2190 h1         1 84C       0.075700
     39 H14         25.3460     5.2290   -30.1050 hc         1 84C       0.065700
     40 H19         23.1900     2.5640   -28.1190 hc         1 84C       0.046700
     41 H20         24.7990     3.0410   -27.6210 hc         1 84C       0.046700
     42 H15         24.5890     3.5220   -31.7930 hc         1 84C       0.055200
     43 H16         23.0020     3.3570   -31.0400 hc         1 84C       0.055200
     44 H17         24.3850     1.5710   -29.9650 hc         1 84C       0.046700
     45 H18         25.7480     2.6700   -29.7740 hc         1 84C       0.046700
     46 H21         24.1370     5.3450   -27.9430 hc         1 84C       0.073700
     47 H22         21.7050     7.5410   -31.9830 h1         1 84C       0.082700
     48 H2          16.8630     5.8990   -28.7480 h1         1 84C       0.044700
     49 H3          15.9460     6.6920   -27.4410 h1         1 84C       0.044700
     50 H4          17.5140     5.9230   -25.7250 hc         1 84C       0.064200
     51 H5          18.6190     6.2990   -27.0540 hc         1 84C       0.064200
     52 H13         23.7690     7.0080   -30.5630 h1         1 84C       0.060200
     53 H12         23.1940     5.8570   -31.7880 h1         1 84C       0.060200
     54 H10         21.1980     3.2310   -27.3070 hn         1 84C       0.312500
     55 H23         18.7560     7.1640   -31.7760 hn         1 84C       0.331500
     56 H24         19.7140     7.0630   -36.3790 hc         1 84C       0.049478
     57 H25         18.6410     5.7470   -35.8520 hc         1 84C       0.049478
     58 H26         18.2160     6.7460   -37.2540 hc         1 84C       0.049478
     59 H29         16.2260     6.3540   -35.0290 hc         1 84C       0.049478
     60 H27         15.8300     8.0460   -34.6610 hc         1 84C       0.049478
     61 H28         15.9650     7.5130   -36.3480 hc         1 84C       0.049478
     62 H31         19.1480     9.4830   -35.8500 hc         1 84C       0.049478
     63 H32         17.5860     9.4500   -36.6680 hc         1 84C       0.049478
     64 H30         17.6700     9.8920   -34.9520 hc         1 84C       0.049478
     65 H33         20.0050     8.9630   -29.8770 hc         1 84C       0.061700
     66 H34         22.0860    10.1190   -29.1780 hc         1 84C       0.041367
     67 H35         22.2370     8.3750   -28.9650 hc         1 84C       0.041367
     68 H36         23.0260     9.1750   -30.3470 hc         1 84C       0.041367
     69 H38         20.7140    11.1240   -30.9400 hc         1 84C       0.041367
     70 H39         21.4310    10.2130   -32.2840 hc         1 84C       0.041367
     71 H37         19.6760    10.1640   -31.9950 hc         1 84C       0.041367
     72 H40         21.3210     2.4230   -24.6810 h1         1 84C       0.022700
     73 H41         22.1780     3.9530   -24.4250 h1         1 84C       0.022700
     74 H42         21.1300     3.2010   -22.5050 ho         1 84C       0.447000
     75 C7          21.5570     5.2390   -27.5030 c          1 84C       0.602100
     76 C15         20.8510     6.3690   -30.3650 c          1 84C       0.590100
     77 O2          21.4760     6.3730   -27.0480 o          1 84C      -0.605100
@<TRIPOS>BOND
     1     1     9 1   
     2     1    14 1   
     3     1    33 1   
     4     2     6 1   
     5     2    16 1   
     6     2    76 1   
     7     3     4 1   
     8     3     9 1   
     9     3    15 1   
    10     3    34 1   
    11     4     5 1   
    12     4    35 1   
    13     4    36 1   
    14     5    17 1   
    15     5    28 1   
    16     5    37 1   
    17     6    12 1   
    18     6    38 1   
    19     6    75 1   
    20     7    10 1   
    21     7    12 1   
    22     7    16 1   
    23     7    39 1   
    24     8    11 1   
    25     8    12 1   
    26     8    40 1   
    27     8    41 1   
    28     9    19 2   
    29    10    11 1   
    30    10    42 1   
    31    10    43 1   
    32    11    44 1   
    33    11    45 1   
    34    12    46 1   
    35    13    18 1   
    36    13    25 1   
    37    13    47 1   
    38    13    76 1   
    39    14    15 1   
    40    14    48 1   
    41    14    49 1   
    42    15    50 1   
    43    15    51 1   
    44    16    52 1   
    45    16    53 1   
    46    17    54 1   
    47    17    75 1   
    48    18    20 1   
    49    18    55 1   
    50    20    30 2   
    51    20    31 1   
    52    21    22 1   
    53    21    23 1   
    54    21    24 1   
    55    21    31 1   
    56    22    56 1   
    57    22    57 1   
    58    22    58 1   
    59    23    59 1   
    60    23    60 1   
    61    23    61 1   
    62    24    62 1   
    63    24    63 1   
    64    24    64 1   
    65    25    26 1   
    66    25    27 1   
    67    25    65 1   
    68    26    66 1   
    69    26    67 1   
    70    26    68 1   
    71    27    69 1   
    72    27    70 1   
    73    27    71 1   
    74    28    32 1   
    75    28    72 1   
    76    28    73 1   
    77    29    76 2   
    78    32    74 1   
    79    75    77 2   
@<TRIPOS>SUBSTRUCTURE
     1 84C         1 TEMP              0 ****  ****    0 ROOT
