@<TRIPOS>MOLECULE
84C
   77    79     1     0     0
SMALL
bcc


@<TRIPOS>ATOM
      1 N1          15.9160     5.3590   -26.7360 ns         1 84C      -0.581900
      2 N3          21.8930     6.2560   -29.9930 n          1 84C      -0.444800
      3 C4          18.0930     4.5820   -26.7670 c5         1 84C      -0.155700
      4 C5          18.9370     3.5950   -25.9770 c3         1 84C      -0.070400
      5 C6          20.4220     3.9550   -25.9690 c3         1 84C       0.106700
      6 C8          21.9410     4.9850   -29.2970 c5         1 84C       0.028700
      7 C10         24.0080     5.4110   -30.5070 c5         1 84C      -0.079700
      8 C13         23.5280     3.0940   -29.9600 c5         1 84C      -0.076400
      9 C1          16.6170     4.2140   -26.7970 c          1 84C       0.706500
     10 C11         23.8400     4.6170   -31.8260 c5         1 84C      -0.076400
     11 C12         23.2260     3.2580   -31.4500 c5         1 84C      -0.080400
     12 C14         23.4080     4.5110   -29.4140 c5         1 84C      -0.071700
     13 C16         20.6510     8.2160   -30.8790 c3         1 84C       0.059700
     14 C2          16.7280     6.5580   -26.7090 c5         1 84C       0.099000
     15 C3          18.0810     6.0190   -26.2440 c5         1 84C      -0.088400
     16 C9          23.2120     6.7020   -30.4220 c5         1 84C       0.114000
     17 N2          20.9220     4.0550   -27.3250 ns         1 84C      -0.570900
     18 N4          19.6550     8.1230   -31.9200 ns         1 84C      -0.550900
     19 O1          16.1540     3.0880   -26.8780 o          1 84C      -0.640500
     20 C17         19.8980     7.4230   -33.0520 c          1 84C       0.765100
     21 C18         18.7400     6.6270   -35.0540 c3         1 84C       0.200800
     22 C19         19.1110     5.1550   -34.9070 c3         1 84C      -0.108767
     23 C20         17.2750     6.7500   -35.4550 c3         1 84C      -0.108767
     24 C21         19.6170     7.3350   -36.0790 c3         1 84C      -0.108767
     25 C22         20.2970     9.3500   -29.9040 c3         1 84C      -0.064700
     26 C23         21.3330     9.4440   -28.7880 c3         1 84C      -0.093600
     27 C24         20.1910    10.6840   -30.6360 c3         1 84C      -0.093600
     28 C25         21.2700     2.9420   -25.2070 c3         1 84C       0.126400
     29 O3          19.6750     6.3790   -29.7170 o          1 84C      -0.628100
     30 O4          20.9920     6.9870   -33.3510 o          1 84C      -0.609000
     31 O5          18.7850     7.3090   -33.7710 os         1 84C      -0.449900
     32 O6          20.8200     2.8830   -23.8750 oh         1 84C      -0.594800
     33 H1          14.9160     5.3810   -26.8620 hn         1 84C       0.323500
     34 H6          18.4250     4.5880   -27.8140 hc         1 84C       0.088700
     35 H7          18.5810     3.5540   -24.9450 hc         1 84C       0.064700
     36 H8          18.8120     2.5900   -26.3930 hc         1 84C       0.064700
     37 H9          20.5560     4.9340   -25.5060 h1         1 84C       0.092700
     38 H11         21.2670     4.2770   -29.7900 h1         1 84C       0.075700
     39 H14         25.0630     5.6080   -30.3150 hc         1 84C       0.065700
     40 H19         22.8660     2.3850   -29.4590 hc         1 84C       0.046700
     41 H20         24.5510     2.7380   -29.8150 hc         1 84C       0.046700
     42 H15         24.8120     4.4820   -32.3000 hc         1 84C       0.055200
     43 H16         23.2160     5.1530   -32.5430 hc         1 84C       0.055200
     44 H17         22.1460     3.2690   -31.6150 hc         1 84C       0.046700
     45 H18         23.6230     2.4380   -32.0480 hc         1 84C       0.046700
     46 H21         23.9260     4.6360   -28.4610 hc         1 84C       0.073700
     47 H22         21.6050     8.4720   -31.3410 h1         1 84C       0.082700
     48 H2          16.7970     7.0130   -27.7010 h1         1 84C       0.044700
     49 H3          16.3110     7.3000   -26.0280 h1         1 84C       0.044700
     50 H4          18.1260     6.0180   -25.1520 hc         1 84C       0.064200
     51 H5          18.9100     6.6200   -26.6110 hc         1 84C       0.064200
     52 H13         23.6470     7.3840   -29.6860 h1         1 84C       0.060200
     53 H12         23.1670     7.2210   -31.3780 h1         1 84C       0.060200
     54 H10         20.7240     3.2840   -27.9450 hn         1 84C       0.312500
     55 H23         18.6950     8.3060   -31.6690 hn         1 84C       0.331500
     56 H24         20.1640     5.0090   -34.6800 hc         1 84C       0.049478
     57 H25         18.5150     4.6800   -34.1260 hc         1 84C       0.049478
     58 H26         18.8960     4.6400   -35.8430 hc         1 84C       0.049478
     59 H29         16.6230     6.2550   -34.7340 hc         1 84C       0.049478
     60 H27         16.9710     7.7950   -35.5350 hc         1 84C       0.049478
     61 H28         17.1170     6.2800   -36.4260 hc         1 84C       0.049478
     62 H31         20.6770     7.2450   -35.8540 hc         1 84C       0.049478
     63 H32         19.4460     6.8920   -37.0610 hc         1 84C       0.049478
     64 H30         19.3610     8.3930   -36.1460 hc         1 84C       0.049478
     65 H33         19.3250     9.1150   -29.4560 hc         1 84C       0.061700
     66 H34         21.0870    10.2640   -28.1140 hc         1 84C       0.041367
     67 H35         21.3890     8.5360   -28.1880 hc         1 84C       0.041367
     68 H36         22.3280     9.6400   -29.1950 hc         1 84C       0.041367
     69 H38         19.9560    11.4800   -29.9290 hc         1 84C       0.041367
     70 H39         21.1370    10.9390   -31.1190 hc         1 84C       0.041367
     71 H37         19.4140    10.6820   -31.3990 hc         1 84C       0.041367
     72 H40         21.1930     1.9660   -25.7070 h1         1 84C       0.022700
     73 H41         22.3200     3.2550   -25.2680 h1         1 84C       0.022700
     74 H42         21.3140     2.1970   -23.4190 ho         1 84C       0.408000
     75 C7          21.5340     5.1350   -27.8370 c          1 84C       0.669100
     76 C15         20.7130     6.8730   -30.1430 c          1 84C       0.657100
     77 O2          21.8030     6.1390   -27.1960 o          1 84C      -0.605100
@<TRIPOS>BOND
     1     1     9 1   
     2     1    14 1   
     3     1    33 1   
     4     2     6 1   
     5     2    16 1   
     6     2    76 1   
     7     3     4 1   
     8     3     9 1   
     9     3    15 1   
    10     3    34 1   
    11     4     5 1   
    12     4    35 1   
    13     4    36 1   
    14     5    17 1   
    15     5    28 1   
    16     5    37 1   
    17     6    12 1   
    18     6    38 1   
    19     6    75 1   
    20     7    10 1   
    21     7    12 1   
    22     7    16 1   
    23     7    39 1   
    24     8    11 1   
    25     8    12 1   
    26     8    40 1   
    27     8    41 1   
    28     9    19 2   
    29    10    11 1   
    30    10    42 1   
    31    10    43 1   
    32    11    44 1   
    33    11    45 1   
    34    12    46 1   
    35    13    18 1   
    36    13    25 1   
    37    13    47 1   
    38    13    76 1   
    39    14    15 1   
    40    14    48 1   
    41    14    49 1   
    42    15    50 1   
    43    15    51 1   
    44    16    52 1   
    45    16    53 1   
    46    17    54 1   
    47    17    75 1   
    48    18    20 1   
    49    18    55 1   
    50    20    30 2   
    51    20    31 1   
    52    21    22 1   
    53    21    23 1   
    54    21    24 1   
    55    21    31 1   
    56    22    56 1   
    57    22    57 1   
    58    22    58 1   
    59    23    59 1   
    60    23    60 1   
    61    23    61 1   
    62    24    62 1   
    63    24    63 1   
    64    24    64 1   
    65    25    26 1   
    66    25    27 1   
    67    25    65 1   
    68    26    66 1   
    69    26    67 1   
    70    26    68 1   
    71    27    69 1   
    72    27    70 1   
    73    27    71 1   
    74    28    32 1   
    75    28    72 1   
    76    28    73 1   
    77    29    76 2   
    78    32    74 1   
    79    75    77 2   
@<TRIPOS>SUBSTRUCTURE
     1 84C         1 TEMP              0 ****  ****    0 ROOT
