@<TRIPOS>MOLECULE
84D
   68    70     1     0     0
SMALL
abcg2


@<TRIPOS>ATOM
      1 C1           5.4370    -1.1150     1.2880 c6         1 84D      -0.108400
      2 C2           4.2520    -2.0290     0.9840 c6         1 84D       0.132500
      3 C3           3.2060    -1.2860     0.1530 c6         1 84D       0.406300
      4 O3          -2.0310     0.5680    -0.0110 os         1 84D      -0.496000
      5 C4           4.8460     0.2030    -0.7540 c6         1 84D       0.159300
      6 O4          -2.7820    -1.0760    -1.4260 os         1 84D      -0.453000
      7 C5           5.2980     0.7230    -2.1050 c3         1 84D       0.157800
      8 C6           1.6830     0.5940     0.5070 c6         1 84D       0.191300
      9 O6          -5.7070    -1.8890     0.6150 oh         1 84D      -0.693000
     10 C7           1.6850     1.7620     1.4950 c6         1 84D       0.168500
     11 O7          -3.9820     2.3280    -0.9640 oh         1 84D      -0.754000
     12 C8           0.7100     2.8370     1.0350 c6         1 84D      -0.113400
     13 C9          -0.7120     2.3020     0.9210 c6         1 84D       0.147500
     14 C10         -0.7270     1.1040    -0.0190 c6         1 84D       0.157300
     15 C11          0.2730     0.0170     0.3840 c6         1 84D       0.138300
     16 C12         -2.6780     0.2990    -1.2150 c6         1 84D       0.364300
     17 C13         -4.0620     0.9450    -1.1780 c6         1 84D       0.117300
     18 C14         -4.9880     0.2470    -0.1690 c6         1 84D       0.131500
     19 N1          -6.3480     0.7580    -0.1990 n8         1 84D      -0.972200
     20 C15         -4.9780    -1.2620    -0.4130 c6         1 84D       0.158300
     21 C16         -3.5300    -1.7660    -0.4350 c6         1 84D       0.124300
     22 C17         -3.3970    -3.2400    -0.7480 c3         1 84D       0.168600
     23 N2          -1.6890     3.2830     0.4630 n8         1 84D      -0.999200
     24 N3           3.0200     2.3280     1.5950 n8         1 84D      -1.000200
     25 O2           0.2930    -1.0130    -0.5760 oh         1 84D      -0.720000
     26 O1           2.6060    -0.3500     1.0130 os         1 84D      -0.510000
     27 N4           3.6180    -2.6430     2.1380 n8         1 84D      -0.980200
     28 O            3.7670    -0.6990    -0.9800 os         1 84D      -0.451000
     29 C            5.9690    -0.4860     0.0050 c6         1 84D      -0.102400
     30 N            4.2400     1.4570    -2.7790 n8         1 84D      -0.980200
     31 H1           5.1310    -0.3300     1.9880 hc         1 84D       0.040700
     32 H2           6.2210    -1.6880     1.7900 hc         1 84D       0.040700
     33 H3           4.6110    -2.8440     0.3440 h1         1 84D       0.070700
     34 H4           2.4670    -1.9950    -0.2270 h2         1 84D       0.107700
     35 H5           4.4930     1.0600    -0.1620 h1         1 84D       0.053700
     36 H6           6.2080     1.3160    -1.9350 h1         1 84D       0.032200
     37 H7           5.5960    -0.1230    -2.7330 h1         1 84D       0.032200
     38 H8          -1.9410    -4.5240    -0.8090 ho         1 84D       0.507000
     39 H9           2.0060     0.9710    -0.4740 h1         1 84D       0.080700
     40 H11          1.3250     1.3730     2.4630 h1         1 84D       0.027700
     41 H12         -3.2630     2.5440    -0.3250 ho         1 84D       0.557000
     42 H13          0.7250     3.6730     1.7390 hc         1 84D       0.051700
     43 H14          1.0370     3.2310     0.0660 hc         1 84D       0.051700
     44 H15         -1.0370     1.9590     1.9100 h1         1 84D       0.074700
     45 H16         -0.4630     1.4530    -1.0300 h1         1 84D       0.052700
     46 H17         -0.0240    -0.3730     1.3710 h1         1 84D       0.048700
     47 H18         -2.1030     0.6930    -2.0620 h2         1 84D       0.081700
     48 H19         -4.5010     0.8010    -2.1750 h1         1 84D       0.064700
     49 H20         -4.5950     0.4220     0.8410 h1         1 84D       0.088700
     50 H21         -6.3230     1.7530    -0.0120 hn         1 84D       0.395500
     51 H22         -6.7190     0.6680    -1.1390 hn         1 84D       0.395500
     52 H24         -5.4310    -1.4620    -1.3970 h1         1 84D       0.033700
     53 H25         -3.1000    -1.5940     0.5620 h1         1 84D       0.075700
     54 H26         -3.7740    -3.4350    -1.7600 h1         1 84D       0.025700
     55 H27         -4.0240    -3.8080    -0.0510 h1         1 84D       0.025700
     56 H28         -1.8490     3.9720     1.1880 hn         1 84D       0.403500
     57 H29         -1.3120     3.7960    -0.3270 hn         1 84D       0.403500
     58 H31          3.0080     3.0870     2.2650 hn         1 84D       0.400500
     59 H32          3.6510     1.6350     1.9770 hn         1 84D       0.400500
     60 H34         -0.5340    -1.5080    -0.5410 ho         1 84D       0.536000
     61 H35          4.2970    -3.2180     2.6220 hn         1 84D       0.396000
     62 H36          3.3430    -1.9250     2.7960 hn         1 84D       0.396000
     63 H38          6.7550     0.2400     0.2270 hc         1 84D       0.047200
     64 H39          6.4200    -1.2560    -0.6300 hc         1 84D       0.047200
     65 H40          4.0290     2.2970    -2.2540 hn         1 84D       0.390000
     66 H41          4.5750     1.7760    -3.6790 hn         1 84D       0.390000
     67 H10         -6.0460    -2.7280     0.2920 ho         1 84D       0.498000
     68 O5          -2.0380    -3.5870    -0.6140 oh         1 84D      -0.714000
@<TRIPOS>BOND
     1     1     2 1   
     2     1    29 1   
     3     1    31 1   
     4     1    32 1   
     5     2     3 1   
     6     2    27 1   
     7     2    33 1   
     8     3    26 1   
     9     3    28 1   
    10     3    34 1   
    11     4    14 1   
    12     4    16 1   
    13     5     7 1   
    14     5    28 1   
    15     5    29 1   
    16     5    35 1   
    17     6    16 1   
    18     6    21 1   
    19     7    30 1   
    20     7    36 1   
    21     7    37 1   
    22     8    10 1   
    23     8    15 1   
    24     8    26 1   
    25     8    39 1   
    26     9    20 1   
    27     9    67 1   
    28    10    12 1   
    29    10    24 1   
    30    10    40 1   
    31    11    17 1   
    32    11    41 1   
    33    12    13 1   
    34    12    42 1   
    35    12    43 1   
    36    13    14 1   
    37    13    23 1   
    38    13    44 1   
    39    14    15 1   
    40    14    45 1   
    41    15    25 1   
    42    15    46 1   
    43    16    17 1   
    44    16    47 1   
    45    17    18 1   
    46    17    48 1   
    47    18    19 1   
    48    18    20 1   
    49    18    49 1   
    50    19    50 1   
    51    19    51 1   
    52    20    21 1   
    53    20    52 1   
    54    21    22 1   
    55    21    53 1   
    56    22    54 1   
    57    22    55 1   
    58    22    68 1   
    59    23    56 1   
    60    23    57 1   
    61    24    58 1   
    62    24    59 1   
    63    25    60 1   
    64    27    61 1   
    65    27    62 1   
    66    29    63 1   
    67    29    64 1   
    68    30    65 1   
    69    30    66 1   
    70    38    68 1   
@<TRIPOS>SUBSTRUCTURE
     1 84D         1 TEMP              0 ****  ****    0 ROOT
