@<TRIPOS>MOLECULE
84D
   68    70     1     0     0
SMALL
No Charge or Current Charge


@<TRIPOS>ATOM
      1 C1           5.6970    -1.0990     1.6720 c6         1 84D      -0.108400
      2 C2           4.3940    -1.9230     1.5030 c6         1 84D       0.132500
      3 C3           3.3680    -1.1700     0.5660 c6         1 84D       0.406300
      4 O3          -1.9900     0.1280     0.0150 os         1 84D      -0.496000
      5 C4           5.1800     0.0460    -0.5430 c6         1 84D       0.159300
      6 O4          -3.1640    -0.8100    -1.7860 os         1 84D      -0.453000
      7 C5           5.6980     0.4190    -1.9750 c3         1 84D       0.157800
      8 C6           1.7650     0.7240     0.5240 c6         1 84D       0.191300
      9 O6          -5.8530    -2.4960     0.2150 oh         1 84D      -0.693000
     10 C7           1.6710     2.1890     1.0820 c6         1 84D       0.168500
     11 O7          -4.1600     2.0840     0.4370 oh         1 84D      -0.754000
     12 C8           0.5700     3.0100     0.3660 c6         1 84D      -0.113400
     13 C9          -0.8110     2.3180     0.4680 c6         1 84D       0.147500
     14 C10         -0.7330     0.8510    -0.0890 c6         1 84D       0.157300
     15 C11          0.3570     0.0390     0.6690 c6         1 84D       0.138300
     16 C12         -2.9700     0.3960    -1.0120 c6         1 84D       0.364300
     17 C13         -4.3290     0.9230    -0.4160 c6         1 84D       0.117300
     18 C14         -5.0230    -0.2340     0.3670 c6         1 84D       0.131500
     19 N1          -6.3380     0.1590     0.9640 n8         1 84D      -0.972200
     20 C15         -5.1830    -1.4810    -0.5430 c6         1 84D       0.158300
     21 C16         -3.7820    -1.9160    -1.0660 c6         1 84D       0.124300
     22 C17         -3.8610    -3.1480    -2.0260 c3         1 84D       0.168600
     23 N2          -1.8170     3.1690    -0.2230 n8         1 84D      -0.999200
     24 N3           2.9650     2.9050     0.9960 n8         1 84D      -1.000200
     25 O2           0.3040    -1.3250     0.2060 oh         1 84D      -0.720000
     26 O1           2.8410     0.0190     1.2160 os         1 84D      -0.510000
     27 N4           3.8500    -2.2610     2.8520 n8         1 84D      -0.980200
     28 O            4.0120    -0.8020    -0.6790 os         1 84D      -0.451000
     29 C            6.2620    -0.6860     0.2920 c6         1 84D      -0.102400
     30 N            4.7530     1.1940    -2.8220 n8         1 84D      -0.980200
     31 H1           5.5000    -0.1970     2.2690 hc         1 84D       0.040700
     32 H2           6.4510    -1.6820     2.2200 hc         1 84D       0.040700
     33 H3           4.6610    -2.8730     1.0140 h1         1 84D       0.070700
     34 H4           2.5560    -1.8770     0.3520 h2         1 84D       0.107700
     35 H5           4.8950     0.9760    -0.0310 h1         1 84D       0.053700
     36 H6           6.6140     1.0160    -1.8610 h1         1 84D       0.032200
     37 H7           5.9670    -0.5040    -2.5080 h1         1 84D       0.032200
     38 H8          -2.7450    -4.2670    -3.2000 ho         1 84D       0.507000
     39 H9           2.0160     0.7900    -0.5450 h1         1 84D       0.080700
     40 H11          1.4210     2.1230     2.1520 h1         1 84D       0.027700
     41 H12         -3.2520     2.4680     0.2120 ho         1 84D       0.557000
     42 H13          0.5130     4.0130     0.8100 hc         1 84D       0.051700
     43 H14          0.8420     3.1470    -0.6900 hc         1 84D       0.051700
     44 H15         -1.1000     2.2640     1.5300 h1         1 84D       0.074700
     45 H16         -0.4410     0.8910    -1.1490 h1         1 84D       0.052700
     46 H17          0.0940     0.0580     1.7370 h1         1 84D       0.048700
     47 H18         -2.5850     1.1690    -1.6940 h2         1 84D       0.081700
     48 H19         -4.9690     1.1900    -1.2700 h1         1 84D       0.064700
     49 H20         -4.3590    -0.5110     1.2020 h1         1 84D       0.088700
     50 H21         -6.1640     1.0050     1.5230 hn         1 84D       0.395500
     51 H22         -6.9450     0.5160     0.2170 hn         1 84D       0.395500
     52 H24         -5.8040    -1.2040    -1.4090 h1         1 84D       0.033700
     53 H25         -3.1460    -2.1920    -0.2130 h1         1 84D       0.075700
     54 H26         -4.5490    -2.9000    -2.8460 h1         1 84D       0.025700
     55 H27         -4.3030    -3.9880    -1.4740 h1         1 84D       0.025700
     56 H28         -1.7720     4.1140     0.1870 hn         1 84D       0.403500
     57 H29         -1.4900     3.3430    -1.1840 hn         1 84D       0.403500
     58 H31          2.9680     3.6660     1.6840 hn         1 84D       0.400500
     59 H32          3.6850     2.2610     1.3440 hn         1 84D       0.400500
     60 H34         -0.6480    -1.4620    -0.0230 ho         1 84D       0.536000
     61 H35          4.6340    -2.3890     3.5010 hn         1 84D       0.396000
     62 H36          3.3750    -1.4230     3.2100 hn         1 84D       0.396000
     63 H38          7.1370    -0.0340     0.4270 hc         1 84D       0.047200
     64 H39          6.6130    -1.5750    -0.2500 hc         1 84D       0.047200
     65 H40          4.5270     2.0760    -2.3480 hn         1 84D       0.390000
     66 H41          5.2350     1.4910    -3.6780 hn         1 84D       0.390000
     67 H10         -6.4080    -1.9630     0.8390 ho         1 84D       0.498000
     68 O5          -2.5800    -3.5370    -2.5590 oh         1 84D      -0.714000
@<TRIPOS>BOND
     1     1     2 1   
     2     1    29 1   
     3     1    31 1   
     4     1    32 1   
     5     2     3 1   
     6     2    27 1   
     7     2    33 1   
     8     3    26 1   
     9     3    28 1   
    10     3    34 1   
    11     4    14 1   
    12     4    16 1   
    13     5     7 1   
    14     5    28 1   
    15     5    29 1   
    16     5    35 1   
    17     6    16 1   
    18     6    21 1   
    19     7    30 1   
    20     7    36 1   
    21     7    37 1   
    22     8    10 1   
    23     8    15 1   
    24     8    26 1   
    25     8    39 1   
    26     9    20 1   
    27     9    67 1   
    28    10    12 1   
    29    10    24 1   
    30    10    40 1   
    31    11    17 1   
    32    11    41 1   
    33    12    13 1   
    34    12    42 1   
    35    12    43 1   
    36    13    14 1   
    37    13    23 1   
    38    13    44 1   
    39    14    15 1   
    40    14    45 1   
    41    15    25 1   
    42    15    46 1   
    43    16    17 1   
    44    16    47 1   
    45    17    18 1   
    46    17    48 1   
    47    18    19 1   
    48    18    20 1   
    49    18    49 1   
    50    19    50 1   
    51    19    51 1   
    52    20    21 1   
    53    20    52 1   
    54    21    22 1   
    55    21    53 1   
    56    22    54 1   
    57    22    55 1   
    58    22    68 1   
    59    23    56 1   
    60    23    57 1   
    61    24    58 1   
    62    24    59 1   
    63    25    60 1   
    64    27    61 1   
    65    27    62 1   
    66    29    63 1   
    67    29    64 1   
    68    30    65 1   
    69    30    66 1   
    70    38    68 1   
@<TRIPOS>SUBSTRUCTURE
     1 84D         1 TEMP              0 ****  ****    0 ROOT
