@<TRIPOS>MOLECULE
84F
   50    52     1     0     0
SMALL
bcc


@<TRIPOS>ATOM
      1 N1           0.2750    -1.7770     0.2020 nj         1 84F      -0.397000
      2 C2          -1.0640    -1.7570     0.7970 cy         1 84F       0.156000
      3 C3          -1.1930    -3.2440     0.3600 cy         1 84F      -0.164700
      4 C4           0.2230    -3.0890    -0.1670 c          1 84F       0.718500
      5 O5           1.0350    -3.8160    -0.6870 o          1 84F      -0.578500
      6 C6           1.2480    -0.7850     0.1580 ca         1 84F       0.157600
      7 C7           0.9870     0.4210     0.7990 ca         1 84F      -0.290500
      8 C8           1.9450     1.4310     0.7660 ca         1 84F       0.184600
      9 C9           3.1510     1.2400     0.0900 ca         1 84F      -0.005900
     10 C10          3.3980     0.0170    -0.5400 ca         1 84F       0.184600
     11 C11          2.4480    -1.0010    -0.5160 ca         1 84F      -0.290500
     12 C12         -2.0190    -0.7640     0.2070 ca         1 84F      -0.103300
     13 C13         -2.0990    -0.5600    -1.1600 ca         1 84F      -0.096000
     14 C14         -3.0020     0.3580    -1.6850 ca         1 84F      -0.186000
     15 C15         -3.8380     1.0870    -0.8510 ca         1 84F       0.123100
     16 C16         -3.7590     0.8860     0.5380 ca         1 84F       0.105100
     17 C17         -2.8550    -0.0310     1.0470 ca         1 84F      -0.186000
     18 O18         -4.5850     1.6190     1.3100 oh         1 84F      -0.473100
     19 O19         -4.7400     2.0010    -1.2580 os         1 84F      -0.294900
     20 C20         -4.8700     2.2330    -2.6460 c3         1 84F       0.120700
     21 O21          4.0690     2.2420     0.0330 os         1 84F      -0.301900
     22 C22          5.0270     2.2190     1.0830 c3         1 84F       0.123700
     23 O23          4.5860    -0.0850    -1.1580 os         1 84F      -0.299900
     24 C24          4.8880    -1.2800    -1.8510 c3         1 84F       0.122200
     25 O25          1.7890     2.6290     1.3530 os         1 84F      -0.299900
     26 C26          0.5790     2.8940     2.0340 c3         1 84F       0.122200
     27 C29         -1.3900    -4.2750     1.4520 c3         1 84F      -0.075100
     28 H1          -1.0240    -1.6500     1.8850 h1         1 84F       0.068700
     29 H2          -1.9200    -3.3770    -0.4450 hc         1 84F       0.093700
     30 H3           0.0460     0.5640     1.3100 ha         1 84F       0.153500
     31 H4           2.6300    -1.9460    -1.0050 ha         1 84F       0.153500
     32 H5          -1.4570    -1.1070    -1.8400 ha         1 84F       0.142000
     33 H6          -3.0390     0.4970    -2.7570 ha         1 84F       0.142000
     34 H7          -2.7960    -0.1750     2.1210 ha         1 84F       0.131000
     35 H8          -4.4460     1.4020     2.2390 ho         1 84F       0.420000
     36 H9          -5.6380     2.9940    -2.7610 h1         1 84F       0.042367
     37 H10         -3.9410     2.6010    -3.0890 h1         1 84F       0.042367
     38 H11         -5.1830     1.3340    -3.1830 h1         1 84F       0.042367
     39 H12          5.6710     3.0860     0.9490 h1         1 84F       0.031700
     40 H13          4.5540     2.2840     2.0660 h1         1 84F       0.031700
     41 H14          5.6430     1.3170     1.0500 h1         1 84F       0.031700
     42 H15          4.9170    -2.1450    -1.1830 h1         1 84F       0.042533
     43 H16          4.1750    -1.4770    -2.6540 h1         1 84F       0.042533
     44 H17          5.8750    -1.1420    -2.2850 h1         1 84F       0.042533
     45 H18         -0.2840     2.8600     1.3630 h1         1 84F       0.042533
     46 H19          0.4130     2.1990     2.8610 h1         1 84F       0.042533
     47 H20          0.6660     3.9000     2.4380 h1         1 84F       0.042533
     48 H21         -2.3900    -4.1980     1.8760 hc         1 84F       0.048033
     49 H22         -1.2740    -5.2830     1.0530 hc         1 84F       0.048033
     50 H23         -0.6680    -4.1440     2.2590 hc         1 84F       0.048033
@<TRIPOS>BOND
     1     1     2 1   
     2     1     4 1   
     3     1     6 1   
     4     2     3 1   
     5     2    12 1   
     6     2    28 1   
     7     3     4 1   
     8     3    27 1   
     9     3    29 1   
    10     4     5 2   
    11     6     7 ar  
    12     6    11 ar  
    13     7     8 ar  
    14     7    30 1   
    15     8     9 ar  
    16     8    25 1   
    17     9    10 ar  
    18     9    21 1   
    19    10    11 ar  
    20    10    23 1   
    21    11    31 1   
    22    12    13 ar  
    23    12    17 ar  
    24    13    14 ar  
    25    13    32 1   
    26    14    15 ar  
    27    14    33 1   
    28    15    16 ar  
    29    15    19 1   
    30    16    17 ar  
    31    16    18 1   
    32    17    34 1   
    33    18    35 1   
    34    19    20 1   
    35    20    36 1   
    36    20    37 1   
    37    20    38 1   
    38    21    22 1   
    39    22    39 1   
    40    22    40 1   
    41    22    41 1   
    42    23    24 1   
    43    24    42 1   
    44    24    43 1   
    45    24    44 1   
    46    25    26 1   
    47    26    45 1   
    48    26    46 1   
    49    26    47 1   
    50    27    48 1   
    51    27    49 1   
    52    27    50 1   
@<TRIPOS>SUBSTRUCTURE
     1 84F         1 TEMP              0 ****  ****    0 ROOT
