@<TRIPOS>MOLECULE
84F
   50    52     1     0     0
SMALL
No Charge or Current Charge


@<TRIPOS>ATOM
      1 N1           0.2760    -1.8370     0.3640 nj         1 84F      -0.237400
      2 C2          -1.1310    -1.8660     0.8270 cy         1 84F       0.156000
      3 C3          -1.2450    -3.3240     0.2800 cy         1 84F      -0.164700
      4 C4           0.2630    -3.1790    -0.0530 c          1 84F       0.576000
      5 O5           1.1140    -3.9260    -0.5170 o          1 84F      -0.503000
      6 C6           1.2390    -0.8000     0.4010 ca         1 84F       0.065000
      7 C7           0.9280     0.4250     1.0060 ca         1 84F      -0.272500
      8 C8           1.8710     1.4720     1.0370 ca         1 84F       0.184600
      9 C9           3.1540     1.3000     0.4650 ca         1 84F      -0.005900
     10 C10          3.4740     0.0500    -0.1490 ca         1 84F       0.184600
     11 C11          2.5050    -0.9800    -0.1710 ca         1 84F      -0.272500
     12 C12         -2.0870    -0.8300     0.2370 ca         1 84F      -0.103300
     13 C13         -2.0600    -0.5290    -1.1390 ca         1 84F      -0.078000
     14 C14         -2.9290     0.4370    -1.6750 ca         1 84F      -0.168000
     15 C15         -3.8400     1.1180    -0.8370 ca         1 84F       0.123100
     16 C16         -3.8670     0.8150     0.5470 ca         1 84F       0.105100
     17 C17         -2.9940    -0.1530     1.0750 ca         1 84F      -0.168000
     18 O18         -4.7370     1.4560     1.3890 oh         1 84F      -0.512100
     19 O19         -4.7110     2.0770    -1.3290 os         1 84F      -0.318100
     20 C20         -4.7470     2.4460    -2.7190 c3         1 84F       0.143900
     21 O21          4.0210     2.3920     0.5470 os         1 84F      -0.325100
     22 C22          5.3630     2.4250     0.0300 c3         1 84F       0.146900
     23 O23          4.7190    -0.1570    -0.7220 os         1 84F      -0.323100
     24 C24          5.1030    -1.3910    -1.3530 c3         1 84F       0.145400
     25 O25          1.5720     2.6910     1.6240 os         1 84F      -0.323100
     26 C26          0.2850     2.9820     2.1980 c3         1 84F       0.145400
     27 C29         -1.6600    -4.4450     1.2490 c3         1 84F      -0.075100
     28 H1          -1.1690    -1.8200     1.9210 h1         1 84F       0.068700
     29 H2          -1.8130    -3.4170    -0.6510 hc         1 84F       0.093700
     30 H3          -0.0520     0.5560     1.4500 ha         1 84F       0.135500
     31 H4           2.7280    -1.9320    -0.6380 ha         1 84F       0.135500
     32 H5          -1.3600    -1.0390    -1.7970 ha         1 84F       0.124000
     33 H6          -2.8770     0.6430    -2.7400 ha         1 84F       0.124000
     34 H7          -3.0160    -0.3800     2.1380 ha         1 84F       0.113000
     35 H8          -4.6120     1.1050     2.2960 ho         1 84F       0.459000
     36 H9          -5.5060     3.2200    -2.8870 h1         1 84F       0.042367
     37 H10         -3.7770     2.8460    -3.0420 h1         1 84F       0.042367
     38 H11         -4.9990     1.5820    -3.3460 h1         1 84F       0.042367
     39 H12          5.8190     3.4030     0.2300 h1         1 84F       0.031700
     40 H13          5.9880     1.6610     0.5090 h1         1 84F       0.031700
     41 H14          5.3690     2.2700    -1.0570 h1         1 84F       0.031700
     42 H15          5.0600    -2.2240    -0.6400 h1         1 84F       0.042533
     43 H16          4.4460    -1.6170    -2.2030 h1         1 84F       0.042533
     44 H17          6.1310    -1.3200    -1.7290 h1         1 84F       0.042533
     45 H18         -0.5080     2.8930     1.4450 h1         1 84F       0.042533
     46 H19          0.0640     2.2980     3.0270 h1         1 84F       0.042533
     47 H20          0.2670     4.0060     2.5910 h1         1 84F       0.042533
     48 H21         -2.7190    -4.3560     1.5200 hc         1 84F       0.048033
     49 H22         -1.5100    -5.4320     0.7940 hc         1 84F       0.048033
     50 H23         -1.0710    -4.4090     2.1740 hc         1 84F       0.048033
@<TRIPOS>BOND
     1     1     2 1   
     2     1     4 1   
     3     1     6 1   
     4     2     3 1   
     5     2    12 1   
     6     2    28 1   
     7     3     4 1   
     8     3    27 1   
     9     3    29 1   
    10     4     5 2   
    11     6     7 ar  
    12     6    11 ar  
    13     7     8 ar  
    14     7    30 1   
    15     8     9 ar  
    16     8    25 1   
    17     9    10 ar  
    18     9    21 1   
    19    10    11 ar  
    20    10    23 1   
    21    11    31 1   
    22    12    13 ar  
    23    12    17 ar  
    24    13    14 ar  
    25    13    32 1   
    26    14    15 ar  
    27    14    33 1   
    28    15    16 ar  
    29    15    19 1   
    30    16    17 ar  
    31    16    18 1   
    32    17    34 1   
    33    18    35 1   
    34    19    20 1   
    35    20    36 1   
    36    20    37 1   
    37    20    38 1   
    38    21    22 1   
    39    22    39 1   
    40    22    40 1   
    41    22    41 1   
    42    23    24 1   
    43    24    42 1   
    44    24    43 1   
    45    24    44 1   
    46    25    26 1   
    47    26    45 1   
    48    26    46 1   
    49    26    47 1   
    50    27    48 1   
    51    27    49 1   
    52    27    50 1   
@<TRIPOS>SUBSTRUCTURE
     1 84F         1 TEMP              0 ****  ****    0 ROOT
