@<TRIPOS>MOLECULE
84G
   82    84     1     0     0
SMALL
bcc


@<TRIPOS>ATOM
      1 C1          -5.3020     3.0840    -0.2930 c3         1 84G      -0.110400
      2 C2          -4.6780     1.6970    -0.3730 c3         1 84G       0.066100
      3 C3          -3.3410     1.6860     0.3650 c          1 84G       0.637100
      4 C4          -0.9050     1.4880     0.0720 c6         1 84G       0.078700
      5 C5           0.0030     2.5560    -0.5240 c6         1 84G      -0.090400
      6 O1          -3.3140     1.7450     1.5850 o          1 84G      -0.584100
      7 O2           3.2250     1.0020     0.5020 os         1 84G      -0.458600
      8 O3           5.1400     1.0860    -0.7840 os         1 84G      -0.397600
      9 O4           1.5650    -1.2920     0.1750 oh         1 84G      -0.623800
     10 O5          -1.1790    -0.9070     0.3100 os         1 84G      -0.399600
     11 O           -5.5090     0.6880     0.1680 oh         1 84G      -0.599800
     12 C           -6.5960     3.2060    -1.0860 c3         1 84G       0.152800
     13 N           -7.1150     4.5620    -0.9900 n8         1 84G      -0.884800
     14 N1          -2.2560     1.6170    -0.4180 ns         1 84G      -0.561900
     15 C15         -0.3400     0.0920    -0.2250 c6         1 84G       0.139100
     16 C16         -2.0510    -1.5470    -0.5700 c6         1 84G       0.319900
     17 C21         -3.0720    -2.3340     0.2530 c6         1 84G       0.098100
     18 O9          -3.7460    -1.5380     1.1880 oh         1 84G      -0.589800
     19 C20         -2.3940    -3.4860     1.0000 c6         1 84G       0.162500
     20 N5          -3.3160    -4.3080     1.7630 n8         1 84G      -0.864800
     21 C19         -1.6310    -4.3480    -0.0010 c6         1 84G       0.130100
     22 O8          -0.8710    -5.2990     0.7090 oh         1 84G      -0.570800
     23 C17         -0.7120    -3.4970    -0.8900 c6         1 84G       0.111100
     24 C18         -0.1750    -4.3210    -2.0420 c3         1 84G       0.147400
     25 O7           0.7580    -3.5650    -2.7740 oh         1 84G      -0.573800
     26 O6          -1.4070    -2.4010    -1.4660 os         1 84G      -0.421600
     27 C14          1.0450    -0.0180     0.4110 c6         1 84G       0.145100
     28 C7           1.9700     1.0710    -0.1530 c6         1 84G       0.115100
     29 C6           1.4140     2.4750     0.0450 c6         1 84G       0.171500
     30 N2           2.2600     3.4410    -0.6350 n8         1 84G      -0.886800
     31 C8           4.2400     0.2580    -0.1140 c6         1 84G       0.346900
     32 C13          4.9230    -0.6040     0.9530 c6         1 84G       0.129500
     33 N4           3.9070    -1.3820     1.6590 n8         1 84G      -0.893800
     34 C12          5.8020     0.2470     1.8630 c6         1 84G      -0.102400
     35 C11          6.7300     1.1290     1.0370 c6         1 84G      -0.104400
     36 C9           5.9260     1.9420     0.0370 c6         1 84G       0.149100
     37 C10          6.8120     2.7770    -0.8680 c3         1 84G       0.153800
     38 N3           6.0350     3.6670    -1.7140 n8         1 84G      -0.864800
     39 H1          -5.4810     3.3500     0.7530 hc         1 84G       0.064700
     40 H2          -4.5740     3.8050    -0.6780 hc         1 84G       0.064700
     41 H3          -4.5340     1.4300    -1.4240 h1         1 84G       0.069700
     42 H4          -0.9500     1.6170     1.1560 h1         1 84G       0.097700
     43 H6          -0.4150     3.5450    -0.3190 hc         1 84G       0.055700
     44 H7           2.3800    -1.4130     0.7250 ho         1 84G       0.454000
     45 H8          -5.7510     0.9480     1.0650 ho         1 84G       0.430000
     46 H9          -6.4120     2.8770    -2.1190 h1         1 84G       0.032700
     47 H10         -7.3440     2.5270    -0.6730 h1         1 84G       0.032700
     48 H11         -6.4870     5.1960    -1.4700 hn         1 84G       0.338300
     49 H12         -7.9930     4.6190    -1.4910 hn         1 84G       0.338300
     50 H14         -2.3900     1.5860    -1.4180 hn         1 84G       0.308500
     51 H15         -0.2370    -0.0300    -1.3140 h1         1 84G       0.061700
     52 H16         -2.5670    -0.8210    -1.2130 h2         1 84G       0.050700
     53 H17         -3.7760    -2.7750    -0.4710 h1         1 84G       0.031700
     54 H18         -4.3590    -0.9430     0.7340 ho         1 84G       0.424000
     55 H19         -1.6710    -3.0570     1.7040 h1         1 84G       0.107700
     56 H20         -3.8280    -3.7180     2.4070 hn         1 84G       0.339800
     57 H21         -4.0150    -4.7000     1.1400 hn         1 84G       0.339800
     58 H23         -2.3750    -4.8460    -0.6450 h1         1 84G       0.023700
     59 H24         -0.8060    -6.1010     0.1850 ho         1 84G       0.398000
     60 H25          0.1220    -3.1320    -0.2820 h1         1 84G       0.103700
     61 H26          0.2840    -5.2310    -1.6370 h1         1 84G       0.016200
     62 H27         -1.0200    -4.6430    -2.6690 h1         1 84G       0.016200
     63 H28          1.0870    -4.1190    -3.4870 ho         1 84G       0.397000
     64 H29          0.9270     0.1720     1.4920 h1         1 84G       0.040700
     65 H30          2.0970     0.9000    -1.2330 h1         1 84G       0.071700
     66 H31          1.3480     2.6520     1.1310 h1         1 84G       0.028700
     67 H32          1.9930     4.3770    -0.3600 hn         1 84G       0.347300
     68 H33          3.2210     3.3290    -0.3360 hn         1 84G       0.347300
     69 H35          3.8140    -0.3920    -0.8860 h2         1 84G       0.094700
     70 H36          5.5620    -1.3100     0.4140 h1         1 84G       0.067700
     71 H37          4.3000    -2.2550     1.9840 hn         1 84G       0.355800
     72 H38          3.6040    -0.8840     2.4890 hn         1 84G       0.355800
     73 H40          5.1680     0.8760     2.4980 hc         1 84G       0.047700
     74 H41          6.3730    -0.4010     2.5310 hc         1 84G       0.047700
     75 H42          7.2920     1.8040     1.6870 hc         1 84G       0.050200
     76 H43          7.4630     0.5120     0.5050 hc         1 84G       0.050200
     77 H44          5.2690     2.6260     0.5970 h1         1 84G       0.038700
     78 H45          7.5320     3.2990    -0.2220 h1         1 84G       0.034700
     79 H46          7.3990     2.1080    -1.5040 h1         1 84G       0.034700
     80 H47          5.5810     4.3660    -1.1390 hn         1 84G       0.334300
     81 H48          6.6620     4.1830    -2.3190 hn         1 84G       0.334300
     82 H5           0.0470     2.4470    -1.6130 hc         1 84G       0.055700
@<TRIPOS>BOND
     1     1     2 1   
     2     1    12 1   
     3     1    39 1   
     4     1    40 1   
     5     2     3 1   
     6     2    11 1   
     7     2    41 1   
     8     3     6 2   
     9     3    14 1   
    10     4     5 1   
    11     4    14 1   
    12     4    15 1   
    13     4    42 1   
    14     5    29 1   
    15     5    43 1   
    16     5    82 1   
    17     7    28 1   
    18     7    31 1   
    19     8    31 1   
    20     8    36 1   
    21     9    27 1   
    22     9    44 1   
    23    10    15 1   
    24    10    16 1   
    25    11    45 1   
    26    12    13 1   
    27    12    46 1   
    28    12    47 1   
    29    13    48 1   
    30    13    49 1   
    31    14    50 1   
    32    15    27 1   
    33    15    51 1   
    34    16    17 1   
    35    16    26 1   
    36    16    52 1   
    37    17    18 1   
    38    17    19 1   
    39    17    53 1   
    40    18    54 1   
    41    19    20 1   
    42    19    21 1   
    43    19    55 1   
    44    20    56 1   
    45    20    57 1   
    46    21    22 1   
    47    21    23 1   
    48    21    58 1   
    49    22    59 1   
    50    23    24 1   
    51    23    26 1   
    52    23    60 1   
    53    24    25 1   
    54    24    61 1   
    55    24    62 1   
    56    25    63 1   
    57    27    28 1   
    58    27    64 1   
    59    28    29 1   
    60    28    65 1   
    61    29    30 1   
    62    29    66 1   
    63    30    67 1   
    64    30    68 1   
    65    31    32 1   
    66    31    69 1   
    67    32    33 1   
    68    32    34 1   
    69    32    70 1   
    70    33    71 1   
    71    33    72 1   
    72    34    35 1   
    73    34    73 1   
    74    34    74 1   
    75    35    36 1   
    76    35    75 1   
    77    35    76 1   
    78    36    37 1   
    79    36    77 1   
    80    37    38 1   
    81    37    78 1   
    82    37    79 1   
    83    38    80 1   
    84    38    81 1   
@<TRIPOS>SUBSTRUCTURE
     1 84G         1 TEMP              0 ****  ****    0 ROOT
