@<TRIPOS>MOLECULE
84G
   82    84     1     0     0
SMALL
No Charge or Current Charge


@<TRIPOS>ATOM
      1 C1          -5.6740     2.8180    -0.2650 c3         1 84G      -0.110400
      2 C2          -4.7740     1.5580    -0.2250 c3         1 84G       0.089300
      3 C3          -3.4160     1.8400     0.4900 c          1 84G       0.570100
      4 C4          -0.9120     1.6600     0.1600 c6         1 84G       0.078700
      5 C5          -0.0220     2.7440    -0.4910 c6         1 84G      -0.090400
      6 O1          -3.3320     2.0370     1.6950 o          1 84G      -0.584100
      7 O2           3.4100     1.2930     0.4500 os         1 84G      -0.505000
      8 O3           5.3600     0.8970    -0.8200 os         1 84G      -0.444000
      9 O4           1.7120    -1.1420     0.4700 oh         1 84G      -0.746000
     10 O5          -1.1440    -0.8270     0.4480 os         1 84G      -0.446000
     11 O           -5.4850     0.4660     0.4130 oh         1 84G      -0.662000
     12 C           -6.9370     2.6460    -1.1330 c3         1 84G       0.152800
     13 N           -7.7380     3.8840    -1.1560 n8         1 84G      -0.995200
     14 N1          -2.3000     1.7790    -0.3220 ns         1 84G      -0.494900
     15 C15         -0.2950     0.2380    -0.0720 c6         1 84G       0.162300
     16 C16         -2.1430    -1.3540    -0.4620 c6         1 84G       0.366300
     17 C21         -3.1930    -2.2680     0.2750 c6         1 84G       0.121300
     18 O9          -3.8890    -1.5970     1.3560 oh         1 84G      -0.712000
     19 C20         -2.4630    -3.5430     0.7970 c6         1 84G       0.162500
     20 N5          -3.3680    -4.4850     1.5310 n8         1 84G      -0.975200
     21 C19         -1.7550    -4.2730    -0.3770 c6         1 84G       0.153300
     22 O8          -1.1220    -5.4510     0.1390 oh         1 84G      -0.693000
     23 C17         -0.7680    -3.2940    -1.0800 c6         1 84G       0.134300
     24 C18         -0.0860    -3.9450    -2.3280 c3         1 84G       0.170600
     25 O7           0.7590    -3.0400    -3.0630 oh         1 84G      -0.696000
     26 O6          -1.4880    -2.1030    -1.5150 os         1 84G      -0.468000
     27 C14          1.1390     0.1820     0.5620 c6         1 84G       0.168300
     28 C7           2.0580     1.2780    -0.0950 c6         1 84G       0.138300
     29 C6           1.4150     2.6930     0.0810 c6         1 84G       0.171500
     30 N2           2.2520     3.7400    -0.5440 n8         1 84G      -0.997200
     31 C8           4.3110     0.2740    -0.0480 c6         1 84G       0.393300
     32 C13          4.8990    -0.6070     1.1240 c6         1 84G       0.129500
     33 N4           3.8610    -1.1590     2.0510 n8         1 84G      -1.004200
     34 C12          5.9340     0.1960     1.9500 c6         1 84G      -0.102400
     35 C11          6.9760     0.8680     1.0240 c6         1 84G      -0.104400
     36 C9           6.2710     1.7270    -0.0580 c6         1 84G       0.172300
     37 C10          7.3030     2.3760    -1.0450 c3         1 84G       0.153800
     38 N3           6.7340     3.2850    -2.0770 n8         1 84G      -0.975200
     39 H1          -5.9630     3.0980     0.7560 hc         1 84G       0.064700
     40 H2          -5.0840     3.6520    -0.6640 hc         1 84G       0.064700
     41 H3          -4.5370     1.2810    -1.2610 h1         1 84G       0.069700
     42 H4          -0.9120     1.8420     1.2460 h1         1 84G       0.097700
     43 H6          -0.4580     3.7360    -0.3070 hc         1 84G       0.055700
     44 H7           2.5150    -1.1450     1.0820 ho         1 84G       0.553000
     45 H8          -5.9590     0.8490     1.1880 ho         1 84G       0.469000
     46 H9          -6.6500     2.3890    -2.1620 h1         1 84G       0.032700
     47 H10         -7.5600     1.8340    -0.7320 h1         1 84G       0.032700
     48 H11         -7.1970     4.6250    -1.6190 hn         1 84G       0.393500
     49 H12         -8.5430     3.7500    -1.7810 hn         1 84G       0.393500
     50 H14         -2.4670     1.6650    -1.3160 hn         1 84G       0.308500
     51 H15         -0.1760     0.0840    -1.1550 h1         1 84G       0.061700
     52 H16         -2.6960    -0.5290    -0.9270 h2         1 84G       0.050700
     53 H17         -3.9320    -2.5860    -0.4760 h1         1 84G       0.031700
     54 H18         -4.4610    -0.8920     0.9460 ho         1 84G       0.523000
     55 H19         -1.6860    -3.2110     1.5060 h1         1 84G       0.107700
     56 H20         -3.8290    -3.9340     2.2670 hn         1 84G       0.395000
     57 H21         -4.1550    -4.7260     0.9180 hn         1 84G       0.395000
     58 H23         -2.5220    -4.5690    -1.1090 h1         1 84G       0.023700
     59 H24         -1.7140    -5.7080     0.8900 ho         1 84G       0.497000
     60 H25          0.0220    -3.0020    -0.3740 h1         1 84G       0.103700
     61 H26          0.5040    -4.8070    -1.9880 h1         1 84G       0.016200
     62 H27         -0.8760    -4.3330    -2.9860 h1         1 84G       0.016200
     63 H28          1.0810    -3.5290    -3.8550 ho         1 84G       0.496000
     64 H29          1.0330     0.4410     1.6260 h1         1 84G       0.040700
     65 H30          2.1220     1.0770    -1.1760 h1         1 84G       0.071700
     66 H31          1.3810     2.9140     1.1590 h1         1 84G       0.028700
     67 H32          2.1600     4.6040    -0.0010 hn         1 84G       0.402500
     68 H33          3.2290     3.4610    -0.3880 hn         1 84G       0.402500
     69 H35          3.7620    -0.4020    -0.7220 h2         1 84G       0.094700
     70 H36          5.4060    -1.4640     0.6530 h1         1 84G       0.067700
     71 H37          4.2880    -1.9230     2.5940 hn         1 84G       0.411000
     72 H38          3.6860    -0.4490     2.7760 hn         1 84G       0.411000
     73 H40          5.4250     0.9700     2.5410 hc         1 84G       0.047700
     74 H41          6.4440    -0.4640     2.6670 hc         1 84G       0.047700
     75 H42          7.6530     1.4950     1.6200 hc         1 84G       0.050200
     76 H43          7.6000     0.1000     0.5440 hc         1 84G       0.050200
     77 H44          5.7020     2.5330     0.4300 h1         1 84G       0.038700
     78 H45          8.0270     2.9520    -0.4520 h1         1 84G       0.034700
     79 H46          7.8540     1.5740    -1.5550 h1         1 84G       0.034700
     80 H47          6.2760     4.0770    -1.6120 hn         1 84G       0.389500
     81 H48          7.5020     3.7210    -2.6010 hn         1 84G       0.389500
     82 H5          -0.0010     2.6070    -1.5820 hc         1 84G       0.055700
@<TRIPOS>BOND
     1     1     2 1   
     2     1    12 1   
     3     1    39 1   
     4     1    40 1   
     5     2     3 1   
     6     2    11 1   
     7     2    41 1   
     8     3     6 2   
     9     3    14 1   
    10     4     5 1   
    11     4    14 1   
    12     4    15 1   
    13     4    42 1   
    14     5    29 1   
    15     5    43 1   
    16     5    82 1   
    17     7    28 1   
    18     7    31 1   
    19     8    31 1   
    20     8    36 1   
    21     9    27 1   
    22     9    44 1   
    23    10    15 1   
    24    10    16 1   
    25    11    45 1   
    26    12    13 1   
    27    12    46 1   
    28    12    47 1   
    29    13    48 1   
    30    13    49 1   
    31    14    50 1   
    32    15    27 1   
    33    15    51 1   
    34    16    17 1   
    35    16    26 1   
    36    16    52 1   
    37    17    18 1   
    38    17    19 1   
    39    17    53 1   
    40    18    54 1   
    41    19    20 1   
    42    19    21 1   
    43    19    55 1   
    44    20    56 1   
    45    20    57 1   
    46    21    22 1   
    47    21    23 1   
    48    21    58 1   
    49    22    59 1   
    50    23    24 1   
    51    23    26 1   
    52    23    60 1   
    53    24    25 1   
    54    24    61 1   
    55    24    62 1   
    56    25    63 1   
    57    27    28 1   
    58    27    64 1   
    59    28    29 1   
    60    28    65 1   
    61    29    30 1   
    62    29    66 1   
    63    30    67 1   
    64    30    68 1   
    65    31    32 1   
    66    31    69 1   
    67    32    33 1   
    68    32    34 1   
    69    32    70 1   
    70    33    71 1   
    71    33    72 1   
    72    34    35 1   
    73    34    73 1   
    74    34    74 1   
    75    35    36 1   
    76    35    75 1   
    77    35    76 1   
    78    36    37 1   
    79    36    77 1   
    80    37    38 1   
    81    37    78 1   
    82    37    79 1   
    83    38    80 1   
    84    38    81 1   
@<TRIPOS>SUBSTRUCTURE
     1 84G         1 TEMP              0 ****  ****    0 ROOT
