@<TRIPOS>MOLECULE
84H
   38    40     1     0     0
SMALL
bcc


@<TRIPOS>ATOM
      1 C1          36.8650   109.2900    19.0170 c2         1 84H       0.109900
      2 C2          35.6990   109.2950    19.6800 ce         1 84H      -0.346200
      3 C3          34.6430   109.6710    18.7300 c          1 84H       0.723700
      4 C4          36.6770   109.6920    17.5810 c5         1 84H       0.148900
      5 C6          37.1230   112.1350    18.1080 ca         1 84H      -0.084300
      6 C7          36.0090   112.9360    17.8730 ca         1 84H      -0.119000
      7 C9          36.4720   114.2650    19.8430 cp         1 84H      -0.028000
      8 C10         37.5940   113.4680    20.0720 ca         1 84H      -0.115500
      9 C11         37.9120   112.4230    19.2190 ca         1 84H      -0.119000
     10 C13         35.6290   116.5820    20.2610 ca         1 84H      -0.116000
     11 C14         35.3090   117.6240    21.1190 ca         1 84H      -0.129000
     12 C15         35.4850   117.4820    22.4880 ca         1 84H      -0.124000
     13 N           35.2490   109.8400    17.5240 ns         1 84H      -0.593900
     14 O1          33.4490   109.8000    18.9510 o          1 84H      -0.623500
     15 O           38.0950   109.0210    19.4090 os         1 84H      -0.295900
     16 C           38.2670   108.7060    20.7840 c3         1 84H       0.118700
     17 C5          37.4450   110.9740    17.2120 c3         1 84H      -0.037100
     18 C8          35.6870   113.9810    18.7250 ca         1 84H      -0.115500
     19 C12         36.1310   115.3760    20.7550 cp         1 84H      -0.035000
     20 C17         36.3030   115.2460    22.1340 ca         1 84H      -0.116000
     21 C16         35.9830   116.2880    22.9930 ca         1 84H      -0.129000
     22 H1          35.5130   109.0680    20.7190 ha         1 84H       0.171000
     23 H2          37.0180   108.8880    16.9180 h1         1 84H       0.077700
     24 H3          35.3790   112.7430    17.0130 ha         1 84H       0.129500
     25 H4          38.2430   113.6780    20.9130 ha         1 84H       0.134000
     26 H5          38.7970   111.8300    19.4170 ha         1 84H       0.129500
     27 H7          34.9280   118.5530    20.7140 ha         1 84H       0.130500
     28 H8          35.2360   118.2960    23.1580 ha         1 84H       0.131000
     29 H61         39.3270   108.5220    20.9340 h1         1 84H       0.049367
     30 H62         37.9490   109.5370    21.4170 h1         1 84H       0.049367
     31 H63         37.7020   107.8110    21.0550 h1         1 84H       0.049367
     32 H64         38.5130   110.7520    17.2410 hc         1 84H       0.059700
     33 H65         37.2060   111.2150    16.1740 hc         1 84H       0.059700
     34 H66         34.8010   114.5710    18.5230 ha         1 84H       0.134000
     35 H67         36.6730   114.3150    22.5450 ha         1 84H       0.131500
     36 H68         36.1190   116.1640    24.0600 ha         1 84H       0.130500
     37 H9          34.7650   110.1790    16.7090 hn         1 84H       0.331500
     38 H6          35.5050   116.7160    19.1930 ha         1 84H       0.131500
@<TRIPOS>BOND
     1     1     2 2   
     2     1     4 1   
     3     1    15 1   
     4     2     3 1   
     5     2    22 1   
     6     3    13 1   
     7     3    14 2   
     8     4    13 1   
     9     4    17 1   
    10     4    23 1   
    11     5     6 ar  
    12     5     9 ar  
    13     5    17 1   
    14     6    18 ar  
    15     6    24 1   
    16     7     8 ar  
    17     7    18 ar  
    18     7    19 1   
    19     8     9 ar  
    20     8    25 1   
    21     9    26 1   
    22    10    11 ar  
    23    10    19 ar  
    24    10    38 1   
    25    11    12 ar  
    26    11    27 1   
    27    12    21 ar  
    28    12    28 1   
    29    13    37 1   
    30    15    16 1   
    31    16    29 1   
    32    16    30 1   
    33    16    31 1   
    34    17    32 1   
    35    17    33 1   
    36    18    34 1   
    37    19    20 ar  
    38    20    21 ar  
    39    20    35 1   
    40    21    36 1   
@<TRIPOS>SUBSTRUCTURE
     1 84H         1 TEMP              0 ****  ****    0 ROOT
