@<TRIPOS>MOLECULE
84H
   38    40     1     0     0
SMALL
No Charge or Current Charge


@<TRIPOS>ATOM
      1 C1          36.9140   109.1790    18.9800 c2         1 84H       0.109900
      2 C2          35.7770   109.1610    19.6790 ce         1 84H      -0.396200
      3 C3          34.6780   109.5910    18.8440 c          1 84H       0.581200
      4 C4          36.6690   109.6720    17.5450 c5         1 84H       0.148900
      5 C6          37.0800   112.1610    18.1290 ca         1 84H      -0.084300
      6 C7          36.0380   113.0460    17.7970 ca         1 84H      -0.101000
      7 C9          36.4350   114.3410    19.8500 cp         1 84H      -0.028000
      8 C10         37.4830   113.4410    20.1670 ca         1 84H      -0.097500
      9 C11         37.8020   112.3670    19.3180 ca         1 84H      -0.101000
     10 C13         35.6500   116.7270    20.2340 ca         1 84H      -0.098000
     11 C14         35.3310   117.8000    21.0830 ca         1 84H      -0.111000
     12 C15         35.4470   117.6550    22.4750 ca         1 84H      -0.106000
     13 N           35.1970   109.8440    17.6070 ns         1 84H      -0.526900
     14 O1          33.5070   109.6940    19.1610 o          1 84H      -0.548000
     15 O           38.1930   108.8440    19.3370 os         1 84H      -0.319100
     16 C           38.4440   108.3980    20.6800 c3         1 84H       0.141900
     17 C5          37.4200   110.9860    17.2130 c3         1 84H      -0.037100
     18 C8          35.7200   114.1200    18.6460 ca         1 84H      -0.097500
     19 C12         36.0940   115.4850    20.7560 cp         1 84H      -0.035000
     20 C17         36.2040   115.3620    22.1650 ca         1 84H      -0.098000
     21 C16         35.8830   116.4350    23.0150 ca         1 84H      -0.111000
     22 H1          35.6370   108.8690    20.7160 ha         1 84H       0.221000
     23 H2          36.9560   108.9040    16.8150 h1         1 84H       0.077700
     24 H3          35.4670   112.8980    16.8830 ha         1 84H       0.111500
     25 H4          38.0650   113.5820    21.0740 ha         1 84H       0.116000
     26 H5          38.6120   111.6940    19.5880 ha         1 84H       0.111500
     27 H7          34.9960   118.7460    20.6620 ha         1 84H       0.112500
     28 H8          35.1990   118.4850    23.1330 ha         1 84H       0.113000
     29 H61         39.5090   108.1700    20.8130 h1         1 84H       0.049367
     30 H62         38.1680   109.1740    21.4050 h1         1 84H       0.049367
     31 H63         37.8690   107.4900    20.9020 h1         1 84H       0.049367
     32 H64         38.5000   110.7970    17.2450 hc         1 84H       0.059700
     33 H65         37.2070   111.2610    16.1730 hc         1 84H       0.059700
     34 H66         34.9000   114.7790    18.3720 ha         1 84H       0.116000
     35 H67         36.5270   114.4220    22.6050 ha         1 84H       0.113500
     36 H68         35.9710   116.3180    24.0930 ha         1 84H       0.112500
     37 H9          34.5900   110.1680    16.8640 hn         1 84H       0.331500
     38 H6          35.5660   116.8660    19.1590 ha         1 84H       0.113500
@<TRIPOS>BOND
     1     1     2 2   
     2     1     4 1   
     3     1    15 1   
     4     2     3 1   
     5     2    22 1   
     6     3    13 1   
     7     3    14 2   
     8     4    13 1   
     9     4    17 1   
    10     4    23 1   
    11     5     6 ar  
    12     5     9 ar  
    13     5    17 1   
    14     6    18 ar  
    15     6    24 1   
    16     7     8 ar  
    17     7    18 ar  
    18     7    19 1   
    19     8     9 ar  
    20     8    25 1   
    21     9    26 1   
    22    10    11 ar  
    23    10    19 ar  
    24    10    38 1   
    25    11    12 ar  
    26    11    27 1   
    27    12    21 ar  
    28    12    28 1   
    29    13    37 1   
    30    15    16 1   
    31    16    29 1   
    32    16    30 1   
    33    16    31 1   
    34    17    32 1   
    35    17    33 1   
    36    18    34 1   
    37    19    20 ar  
    38    20    21 ar  
    39    20    35 1   
    40    21    36 1   
@<TRIPOS>SUBSTRUCTURE
     1 84H         1 TEMP              0 ****  ****    0 ROOT
