@<TRIPOS>MOLECULE
84I
   40    41     1     0     0
SMALL
bcc


@<TRIPOS>ATOM
      1 C5          23.7910     4.9460    14.2620 ca         1 84I      -0.164600
      2 C6          24.8890     5.8010    14.1440 ca         1 84I       0.133400
      3 C2          25.2980     5.0980    11.8620 ca         1 84I       0.155900
      4 C3          24.1930     4.2370    11.9730 ca         1 84I      -0.302500
      5 C4          23.4710     4.1710    13.1440 ca         1 84I       0.011000
      6 O13         23.1560     5.4620    16.5080 o          1 84I      -0.510000
      7 C12         22.9710     4.8330    15.4980 c          1 84I       0.658700
      8 O14         21.9970     3.9460    15.3590 os         1 84I      -0.430900
      9 C15         21.1500     3.7200    16.4860 c3         1 84I       0.131700
     10 CL1         25.4300     6.8200    15.4210 cl         1 84I      -0.053400
     11 C1          25.6250     5.8700    12.9710 ca         1 84I      -0.181000
     12 S7          23.6980     3.2590    10.5610 sy         1 84I       1.306200
     13 O9          23.1370     4.1700     9.5820 o          1 84I      -0.587800
     14 N10         22.5040     2.2550    11.0240 n8         1 84I      -0.930700
     15 O8          24.8380     2.4300    10.2120 o          1 84I      -0.587800
     16 S16         26.2220     5.1580    10.3790 ss         1 84I      -0.171000
     17 C17         27.2460     6.6470    10.5600 c3         1 84I      -0.007300
     18 C18         27.9170     6.9110     9.2130 c3         1 84I      -0.022100
     19 C19         28.7810     8.1400     9.2970 ca         1 84I      -0.088300
     20 C24         30.0980     8.0510     9.7410 ca         1 84I      -0.122000
     21 C23         30.8890     9.1860     9.8480 ca         1 84I      -0.126000
     22 C22         30.3720    10.4300     9.5110 ca         1 84I      -0.124000
     23 C21         29.0590    10.5300     9.0690 ca         1 84I      -0.126000
     24 C20         28.2710     9.3920     8.9630 ca         1 84I      -0.122000
     25 H1          22.6270     3.5000    13.2050 ha         1 84I       0.140000
     26 H2          20.4540     2.9450    16.1820 h1         1 84I       0.051700
     27 H3          21.7210     3.3790    17.3490 h1         1 84I       0.051700
     28 H4          20.5970     4.6210    16.7530 h1         1 84I       0.051700
     29 H5          26.4740     6.5370    12.9420 ha         1 84I       0.155000
     30 H6          22.7570     1.5220    11.6770 hn         1 84I       0.437300
     31 H7          21.6020     2.6780    11.2120 hn         1 84I       0.437300
     32 H8          27.9990     6.4860    11.3320 h1         1 84I       0.073200
     33 H9          26.6170     7.4910    10.8450 h1         1 84I       0.073200
     34 H10         27.1540     7.0420     8.4440 hc         1 84I       0.065700
     35 H11         28.5220     6.0480     8.9270 hc         1 84I       0.065700
     36 H12         30.5100     7.0820    10.0010 ha         1 84I       0.131000
     37 H13         31.9130     9.0990    10.1900 ha         1 84I       0.132500
     38 H14         30.9880    11.3160     9.5910 ha         1 84I       0.132000
     39 H15         28.6480    11.4960     8.8020 ha         1 84I       0.132500
     40 H16         27.2480     9.4760     8.6140 ha         1 84I       0.131000
@<TRIPOS>BOND
     1     1     2 ar  
     2     1     5 ar  
     3     1     7 1   
     4     2    10 1   
     5     2    11 ar  
     6     3     4 ar  
     7     3    11 ar  
     8     3    16 1   
     9     4     5 ar  
    10     4    12 1   
    11     5    25 1   
    12     6     7 2   
    13     7     8 1   
    14     8     9 1   
    15     9    26 1   
    16     9    27 1   
    17     9    28 1   
    18    11    29 1   
    19    12    13 2   
    20    12    14 1   
    21    12    15 2   
    22    14    30 1   
    23    14    31 1   
    24    16    17 1   
    25    17    18 1   
    26    17    32 1   
    27    17    33 1   
    28    18    19 1   
    29    18    34 1   
    30    18    35 1   
    31    19    20 ar  
    32    19    24 ar  
    33    20    21 ar  
    34    20    36 1   
    35    21    22 ar  
    36    21    37 1   
    37    22    23 ar  
    38    22    38 1   
    39    23    24 ar  
    40    23    39 1   
    41    24    40 1   
@<TRIPOS>SUBSTRUCTURE
     1 84I         1 TEMP              0 ****  ****    0 ROOT
