@<TRIPOS>MOLECULE
84I
   40    41     1     0     0
SMALL
No Charge or Current Charge


@<TRIPOS>ATOM
      1 C5          23.7220     4.9450    14.3530 ca         1 84I      -0.164600
      2 C6          25.0780     5.3270    14.3870 ca         1 84I       0.225000
      3 C2          25.2960     4.8810    11.9910 ca         1 84I       0.029000
      4 C3          23.9350     4.4820    11.9450 ca         1 84I      -0.302500
      5 C4          23.1650     4.5180    13.1300 ca         1 84I       0.029000
      6 O13         22.9100     5.8760    16.4180 o          1 84I      -0.461000
      7 C12         22.8620     4.9800    15.5860 c          1 84I       0.609700
      8 O14         21.9140     3.9870    15.6010 os         1 84I      -0.454100
      9 C15         20.9880     3.9480    16.7040 c3         1 84I       0.154900
     10 Cl1         25.8880     5.8060    15.8810 cl         1 84I      -0.145000
     11 C1          25.8490     5.2890    13.2170 ca         1 84I      -0.163000
     12 S7          23.1260     3.9410    10.4230 sy         1 84I       1.164600
     13 O9          21.7350     3.5880    10.6970 o          1 84I      -0.517000
     14 N10         23.8460     2.4980    10.1500 n8         1 84I      -1.041100
     15 O8          23.5120     4.7850     9.2930 o          1 84I      -0.517000
     16 S16         26.3640     4.8360    10.5470 ss         1 84I      -0.092000
     17 C17         27.2560     6.4530    10.6000 c3         1 84I       0.040600
     18 C18         28.1030     6.6460     9.3290 c3         1 84I      -0.022100
     19 C19         28.8470     7.9740     9.3410 ca         1 84I      -0.088300
     20 C24         30.1410     8.0580     9.8940 ca         1 84I      -0.104000
     21 C23         30.8250     9.2860     9.9110 ca         1 84I      -0.108000
     22 C22         30.2200    10.4370     9.3780 ca         1 84I      -0.106000
     23 C21         28.9300    10.3590     8.8280 ca         1 84I      -0.108000
     24 C20         28.2450     9.1310     8.8100 ca         1 84I      -0.104000
     25 H1          22.1160     4.2270    13.1020 ha         1 84I       0.122000
     26 H2          20.2950     3.1040    16.5910 h1         1 84I       0.051700
     27 H3          21.5180     3.8260    17.6580 h1         1 84I       0.051700
     28 H4          20.3940     4.8700    16.7510 h1         1 84I       0.051700
     29 H5          26.8970     5.5630    13.2780 ha         1 84I       0.137000
     30 H6          24.2500     2.2930    11.0600 hn         1 84I       0.492500
     31 H7          23.0310     1.8910    10.1060 hn         1 84I       0.492500
     32 H8          27.9070     6.4830    11.4820 h1         1 84I       0.073200
     33 H9          26.5190     7.2610    10.6800 h1         1 84I       0.073200
     34 H10         27.4480     6.5860     8.4500 hc         1 84I       0.065700
     35 H11         28.8120     5.8140     9.2410 hc         1 84I       0.065700
     36 H12         30.6160     7.1730    10.3110 ha         1 84I       0.113000
     37 H13         31.8240     9.3450    10.3390 ha         1 84I       0.114500
     38 H14         30.7500    11.3870     9.3920 ha         1 84I       0.114000
     39 H15         28.4600    11.2490     8.4160 ha         1 84I       0.114500
     40 H16         27.2450     9.0810     8.3840 ha         1 84I       0.113000
@<TRIPOS>BOND
     1     1     2 ar  
     2     1     5 ar  
     3     1     7 1   
     4     2    10 1   
     5     2    11 ar  
     6     3     4 ar  
     7     3    11 ar  
     8     3    16 1   
     9     4     5 ar  
    10     4    12 1   
    11     5    25 1   
    12     6     7 2   
    13     7     8 1   
    14     8     9 1   
    15     9    26 1   
    16     9    27 1   
    17     9    28 1   
    18    11    29 1   
    19    12    13 2   
    20    12    14 1   
    21    12    15 2   
    22    14    30 1   
    23    14    31 1   
    24    16    17 1   
    25    17    18 1   
    26    17    32 1   
    27    17    33 1   
    28    18    19 1   
    29    18    34 1   
    30    18    35 1   
    31    19    20 ar  
    32    19    24 ar  
    33    20    21 ar  
    34    20    36 1   
    35    21    22 ar  
    36    21    37 1   
    37    22    23 ar  
    38    22    38 1   
    39    23    24 ar  
    40    23    39 1   
    41    24    40 1   
@<TRIPOS>SUBSTRUCTURE
     1 84I         1 TEMP              0 ****  ****    0 ROOT
