@<TRIPOS>MOLECULE
84K
   59    61     1     0     0
SMALL
No Charge or Current Charge


@<TRIPOS>ATOM
      1 N1         -35.7840    -6.1700   -72.8940 n          1 84K      -0.250400
      2 C4         -35.1030    -4.9360   -72.6100 ca         1 84K      -0.053000
      3 C5         -35.2280    -3.8450   -73.4920 ca         1 84K      -0.109000
      4 C6         -34.4760    -2.6760   -73.2850 ca         1 84K      -0.106500
      5 C7         -33.5660    -2.6060   -72.2170 ca         1 84K      -0.106000
      6 C8         -33.3960    -3.7120   -71.3680 ca         1 84K      -0.106500
      7 C10        -37.3010    -6.2270   -72.6380 c6         1 84K       0.094400
      8 C13        -38.9250    -7.2610   -70.7900 c6         1 84K       0.167300
      9 C17        -42.4960    -4.8840   -68.2620 ca         1 84K      -0.082300
     10 C20        -44.8500    -5.2750   -66.7600 ca         1 84K      -0.111000
     11 C21        -43.5980    -5.2800   -66.1210 ca         1 84K      -0.109500
     12 C22        -42.4250    -5.0850   -66.8700 ca         1 84K      -0.107000
     13 C24        -40.0130    -7.7100   -74.9200 c3         1 84K       0.152900
     14 C1         -33.0260    -8.2020   -74.7910 c3         1 84K      -0.077100
     15 C11        -37.9480    -4.8630   -72.1140 c6         1 84K      -0.079900
     16 C12        -39.3860    -4.9930   -71.5650 c6         1 84K       0.167300
     17 C14        -37.5080    -7.2170   -71.4270 c6         1 84K      -0.079900
     18 C16        -41.2250    -4.6800   -69.0780 c3         1 84K      -0.032100
     19 C18        -43.7530    -4.8830   -68.8980 ca         1 84K      -0.107000
     20 C19        -44.9270    -5.0770   -68.1490 ca         1 84K      -0.109500
     21 C2         -33.6310    -7.0790   -73.9180 c3         1 84K      -0.146400
     22 C23        -38.0770    -6.6360   -73.9510 c          1 84K       0.602100
     23 C3         -35.1120    -7.2640   -73.5150 c          1 84K       0.606100
     24 C9         -34.1480    -4.8810   -71.5760 ca         1 84K      -0.109000
     25 N2         -39.4180    -5.9170   -70.4030 n3         1 84K      -0.729600
     26 O1         -35.6760    -8.3330   -73.7200 o          1 84K      -0.602100
     27 O2         -37.6140    -6.4340   -75.0700 o          1 84K      -0.494000
     28 O3         -39.2700    -7.2880   -73.7620 os         1 84K      -0.431100
     29 H6         -35.9080    -3.9040   -74.3390 ha         1 84K       0.129500
     30 H7         -34.5900    -1.8290   -73.9590 ha         1 84K       0.118500
     31 H8         -32.9810    -1.7020   -72.0580 ha         1 84K       0.117000
     32 H9         -32.6750    -3.6670   -70.5530 ha         1 84K       0.118500
     33 H16        -39.6370    -7.7510   -71.4670 h1         1 84K       0.040450
     34 H15        -38.8720    -7.9030   -69.8990 h1         1 84K       0.040450
     35 H19        -41.5060    -6.3290   -70.4490 h1         1 84K       0.035200
     36 H20        -40.6970    -6.7520   -68.9400 h1         1 84K       0.035200
     37 H25        -45.7580    -5.4260   -66.1800 ha         1 84K       0.112000
     38 H26        -43.5380    -5.4340   -65.0460 ha         1 84K       0.112000
     39 H27        -41.4600    -5.0930   -66.3670 ha         1 84K       0.111000
     40 H28        -40.9410    -8.2110   -74.6160 h1         1 84K       0.049700
     41 H30        -40.2810    -6.8500   -75.5480 h1         1 84K       0.049700
     42 H29        -39.4280    -8.4140   -75.5250 h1         1 84K       0.049700
     43 H3         -31.9800    -7.9770   -75.0310 hc         1 84K       0.042700
     44 H1         -33.0570    -9.1640   -74.2650 hc         1 84K       0.042700
     45 H2         -33.5800    -8.3020   -75.7320 hc         1 84K       0.042700
     46 H12        -37.3280    -4.4400   -71.3120 hc         1 84K       0.066700
     47 H11        -37.9490    -4.1190   -72.9200 hc         1 84K       0.066700
     48 H13        -39.7170    -3.9880   -71.2680 h1         1 84K       0.040450
     49 H14        -40.0690    -5.3310   -72.3570 h1         1 84K       0.040450
     50 H17        -37.2420    -8.2390   -71.7200 hc         1 84K       0.066700
     51 H18        -36.7990    -6.9470   -70.6320 hc         1 84K       0.066700
     52 H21        -40.4240    -4.2870   -68.4400 hc         1 84K       0.053700
     53 H22        -41.4060    -3.9230   -69.8490 hc         1 84K       0.053700
     54 H23        -43.8210    -4.7320   -69.9730 ha         1 84K       0.111000
     55 H24        -45.8950    -5.0750   -68.6450 ha         1 84K       0.112000
     56 H5         -33.0500    -6.9440   -73.0000 hc         1 84K       0.062200
     57 H4         -33.5180    -6.0990   -74.3950 hc         1 84K       0.062200
     58 H10        -34.0020    -5.7390   -70.9230 ha         1 84K       0.129500
     59 C15        -40.7430    -5.9940   -69.7340 c3         1 84K       0.170800
@<TRIPOS>BOND
     1     1     2 1   
     2     1     7 1   
     3     1    23 1   
     4     2     3 ar  
     5     2    24 ar  
     6     3     4 ar  
     7     3    29 1   
     8     4     5 ar  
     9     4    30 1   
    10     5     6 ar  
    11     5    31 1   
    12     6    24 ar  
    13     6    32 1   
    14     7    15 1   
    15     7    17 1   
    16     7    22 1   
    17     8    17 1   
    18     8    25 1   
    19     8    33 1   
    20     8    34 1   
    21     9    12 ar  
    22     9    18 1   
    23     9    19 ar  
    24    10    11 ar  
    25    10    20 ar  
    26    10    37 1   
    27    11    12 ar  
    28    11    38 1   
    29    12    39 1   
    30    13    28 1   
    31    13    40 1   
    32    13    41 1   
    33    13    42 1   
    34    14    21 1   
    35    14    43 1   
    36    14    44 1   
    37    14    45 1   
    38    15    16 1   
    39    15    46 1   
    40    15    47 1   
    41    16    25 1   
    42    16    48 1   
    43    16    49 1   
    44    17    50 1   
    45    17    51 1   
    46    18    52 1   
    47    18    53 1   
    48    18    59 1   
    49    19    20 ar  
    50    19    54 1   
    51    20    55 1   
    52    21    23 1   
    53    21    56 1   
    54    21    57 1   
    55    22    27 2   
    56    22    28 1   
    57    23    26 2   
    58    24    58 1   
    59    25    59 1   
    60    35    59 1   
    61    36    59 1   
@<TRIPOS>SUBSTRUCTURE
     1 84K         1 TEMP              0 ****  ****    0 ROOT
