@<TRIPOS>MOLECULE
84K
   59    61     1     0     0
SMALL
abcg2


@<TRIPOS>ATOM
      1 N1         -35.9410    -6.1060   -73.0230 n          1 84K      -0.250400
      2 C4         -35.2330    -4.9210   -72.6330 ca         1 84K      -0.053000
      3 C5         -35.1910    -3.8270   -73.4920 ca         1 84K      -0.109000
      4 C6         -34.5120    -2.6750   -73.1140 ca         1 84K      -0.106500
      5 C7         -33.8750    -2.6140   -71.8780 ca         1 84K      -0.106000
      6 C8         -33.9160    -3.7100   -71.0220 ca         1 84K      -0.106500
      7 C10        -37.3780    -6.2760   -72.6660 c6         1 84K       0.094400
      8 C13        -38.8790    -7.2610   -70.8090 c6         1 84K       0.167300
      9 C17        -42.2560    -4.7790   -68.2820 ca         1 84K      -0.082300
     10 C20        -44.6440    -5.0880   -66.8370 ca         1 84K      -0.111000
     11 C21        -43.4290    -5.4660   -66.2730 ca         1 84K      -0.109500
     12 C22        -42.2480    -5.3130   -66.9910 ca         1 84K      -0.107000
     13 C24        -39.6570    -8.2160   -74.9150 c3         1 84K       0.152900
     14 C1         -33.2370    -8.1130   -74.7470 c3         1 84K      -0.077100
     15 C11        -38.0070    -4.9230   -72.2790 c6         1 84K      -0.079900
     16 C12        -39.4040    -5.0990   -71.7000 c6         1 84K       0.167300
     17 C14        -37.5000    -7.2290   -71.4620 c6         1 84K      -0.079900
     18 C16        -40.9780    -4.6550   -69.0680 c3         1 84K      -0.032100
     19 C18        -43.4810    -4.4040   -68.8370 ca         1 84K      -0.107000
     20 C19        -44.6660    -4.5560   -68.1230 ca         1 84K      -0.109500
     21 C2         -33.8310    -6.9480   -73.9690 c3         1 84K      -0.146400
     22 C23        -38.0930    -6.7390   -73.9510 c          1 84K       0.602100
     23 C3         -35.3060    -7.1300   -73.6610 c          1 84K       0.606100
     24 C9         -34.5930    -4.8640   -71.3990 ca         1 84K      -0.109000
     25 N2         -39.3560    -5.9160   -70.4900 n3         1 84K      -0.729600
     26 O1         -35.9160    -8.1500   -73.9790 o          1 84K      -0.602100
     27 O2         -37.9880    -6.1490   -75.0030 o          1 84K      -0.494000
     28 O3         -38.9070    -7.7740   -73.7670 os         1 84K      -0.431100
     29 H6         -35.6930    -3.8870   -74.4490 ha         1 84K       0.129500
     30 H7         -34.4800    -1.8260   -73.7850 ha         1 84K       0.118500
     31 H8         -33.3470    -1.7160   -71.5840 ha         1 84K       0.117000
     32 H9         -33.4200    -3.6690   -70.0610 ha         1 84K       0.118500
     33 H16        -39.5940    -7.7880   -71.4560 h1         1 84K       0.040450
     34 H15        -38.8060    -7.8270   -69.8780 h1         1 84K       0.040450
     35 H19        -41.4600    -6.2240   -70.4800 h1         1 84K       0.035200
     36 H20        -40.5790    -6.7610   -69.0510 h1         1 84K       0.035200
     37 H25        -45.5640    -5.2040   -66.2790 ha         1 84K       0.112000
     38 H26        -43.4000    -5.8780   -65.2710 ha         1 84K       0.112000
     39 H27        -41.3040    -5.6060   -66.5450 ha         1 84K       0.111000
     40 H28        -40.2590    -9.0480   -74.5650 h1         1 84K       0.049700
     41 H30        -40.2910    -7.4110   -75.2830 h1         1 84K       0.049700
     42 H29        -38.9770    -8.5380   -75.7030 h1         1 84K       0.049700
     43 H3         -32.1820    -7.9220   -74.9490 hc         1 84K       0.042700
     44 H1         -33.3140    -9.0450   -74.1870 hc         1 84K       0.042700
     45 H2         -33.7470    -8.2520   -75.7010 hc         1 84K       0.042700
     46 H12        -37.3840    -4.4550   -71.5190 hc         1 84K       0.066700
     47 H11        -38.0350    -4.2620   -73.1450 hc         1 84K       0.066700
     48 H13        -39.7970    -4.1140   -71.4540 h1         1 84K       0.040450
     49 H14        -40.0870    -5.5390   -72.4470 h1         1 84K       0.040450
     50 H17        -37.2050    -8.2350   -71.7550 hc         1 84K       0.066700
     51 H18        -36.7800    -6.8750   -70.7210 hc         1 84K       0.066700
     52 H21        -40.1500    -4.4090   -68.3990 hc         1 84K       0.053700
     53 H22        -41.0730    -3.8390   -69.7870 hc         1 84K       0.053700
     54 H23        -43.5040    -3.9860   -69.8370 ha         1 84K       0.111000
     55 H24        -45.6060    -4.2550   -68.5690 ha         1 84K       0.112000
     56 H5         -33.3000    -6.8060   -73.0240 hc         1 84K       0.062200
     57 H4         -33.7060    -6.0130   -74.5190 hc         1 84K       0.062200
     58 H10        -34.6240    -5.7240   -70.7420 ha         1 84K       0.129500
     59 C15        -40.6370    -5.9620   -69.7920 c3         1 84K       0.170800
@<TRIPOS>BOND
     1     1     2 1   
     2     1     7 1   
     3     1    23 1   
     4     2     3 ar  
     5     2    24 ar  
     6     3     4 ar  
     7     3    29 1   
     8     4     5 ar  
     9     4    30 1   
    10     5     6 ar  
    11     5    31 1   
    12     6    24 ar  
    13     6    32 1   
    14     7    15 1   
    15     7    17 1   
    16     7    22 1   
    17     8    17 1   
    18     8    25 1   
    19     8    33 1   
    20     8    34 1   
    21     9    12 ar  
    22     9    18 1   
    23     9    19 ar  
    24    10    11 ar  
    25    10    20 ar  
    26    10    37 1   
    27    11    12 ar  
    28    11    38 1   
    29    12    39 1   
    30    13    28 1   
    31    13    40 1   
    32    13    41 1   
    33    13    42 1   
    34    14    21 1   
    35    14    43 1   
    36    14    44 1   
    37    14    45 1   
    38    15    16 1   
    39    15    46 1   
    40    15    47 1   
    41    16    25 1   
    42    16    48 1   
    43    16    49 1   
    44    17    50 1   
    45    17    51 1   
    46    18    52 1   
    47    18    53 1   
    48    18    59 1   
    49    19    20 ar  
    50    19    54 1   
    51    20    55 1   
    52    21    23 1   
    53    21    56 1   
    54    21    57 1   
    55    22    27 2   
    56    22    28 1   
    57    23    26 2   
    58    24    58 1   
    59    25    59 1   
    60    35    59 1   
    61    36    59 1   
@<TRIPOS>SUBSTRUCTURE
     1 84K         1 TEMP              0 ****  ****    0 ROOT
