@<TRIPOS>MOLECULE
84N
   32    34     1     0     0
SMALL
abcg2


@<TRIPOS>ATOM
      1 N1          49.6990    13.6100    47.5580 na         1 84N      -0.218700
      2 C2          49.8860    17.3180    44.8050 ce         1 84N      -0.401200
      3 C4          48.7350    15.6070    43.6790 c5         1 84N       0.142900
      4 C5          47.9960    14.4640    44.4010 c3         1 84N      -0.005200
      5 C6          48.4580    14.2460    45.8030 cc         1 84N      -0.154400
      6 C8          48.6790    14.3500    48.0800 ca         1 84N      -0.046200
      7 N           50.1570    15.4060    43.6120 ns         1 84N      -0.523900
      8 C3          50.8620    16.3350    44.3130 c          1 84N       0.580200
      9 O1          52.0730    16.3390    44.4740 o          1 84N      -0.557000
     10 C1          48.6660    16.9090    44.4220 c2         1 84N       0.120900
     11 O           47.4710    17.4370    44.6010 os         1 84N      -0.318100
     12 C           47.4120    18.6280    45.3740 c3         1 84N       0.141900
     13 C9          47.8700    14.7710    47.0010 ca         1 84N      -0.088800
     14 C10         46.7320    15.5410    47.2710 ca         1 84N      -0.065000
     15 C11         46.4440    15.8780    48.5790 ca         1 84N      -0.144000
     16 C12         47.2700    15.4570    49.6350 ca         1 84N      -0.093000
     17 C13         48.3930    14.6870    49.4020 ca         1 84N      -0.126000
     18 C7          49.5650    13.5490    46.2000 cd         1 84N      -0.141100
     19 H1          50.4300    13.1640    48.0870 hn         1 84N       0.353000
     20 H4          48.3040    15.7200    42.6780 h1         1 84N       0.077700
     21 H5          46.9260    14.6820    44.3790 hc         1 84N       0.056200
     22 H6          48.1290    13.5590    43.8030 hc         1 84N       0.056200
     23 H58         46.3650    18.9140    45.4310 h1         1 84N       0.049700
     24 H59         47.7960    18.4590    46.3820 h1         1 84N       0.049700
     25 H60         47.9820    19.4310    44.9020 h1         1 84N       0.049700
     26 H61         46.0840    15.8700    46.4680 ha         1 84N       0.116000
     27 H62         45.5680    16.4750    48.7980 ha         1 84N       0.109000
     28 H63         47.0190    15.7370    50.6500 ha         1 84N       0.110000
     29 H64         49.0260    14.3570    50.2170 ha         1 84N       0.114000
     30 H65         50.2790    13.0030    45.6040 h4         1 84N       0.212000
     31 H3          50.5700    14.5570    43.2620 hn         1 84N       0.326500
     32 H2          50.1580    18.1980    45.3670 ha         1 84N       0.220000
@<TRIPOS>BOND
     1     1     6 1   
     2     1    18 1   
     3     1    19 1   
     4     2     8 1   
     5     2    10 2   
     6     2    32 1   
     7     3     4 1   
     8     3     7 1   
     9     3    10 1   
    10     3    20 1   
    11     4     5 1   
    12     4    21 1   
    13     4    22 1   
    14     5    13 1   
    15     5    18 2   
    16     6    13 ar  
    17     6    17 ar  
    18     7     8 1   
    19     7    31 1   
    20     8     9 2   
    21    10    11 1   
    22    11    12 1   
    23    12    23 1   
    24    12    24 1   
    25    12    25 1   
    26    13    14 ar  
    27    14    15 ar  
    28    14    26 1   
    29    15    16 ar  
    30    15    27 1   
    31    16    17 ar  
    32    16    28 1   
    33    17    29 1   
    34    18    30 1   
@<TRIPOS>SUBSTRUCTURE
     1 84N         1 TEMP              0 ****  ****    0 ROOT
