@<TRIPOS>MOLECULE
84N
   32    34     1     0     0
SMALL
No Charge or Current Charge


@<TRIPOS>ATOM
      1 N1          49.6770    13.3880    47.6150 na         1 84N      -0.218700
      2 C2          49.8290    17.3550    44.8240 ce         1 84N      -0.401200
      3 C4          48.7240    15.5940    43.6910 c5         1 84N       0.142900
      4 C5          48.0020    14.4210    44.4050 c3         1 84N      -0.005200
      5 C6          48.4700    14.1530    45.8170 cc         1 84N      -0.154400
      6 C8          48.6900    14.2420    48.0700 ca         1 84N      -0.046200
      7 N           50.2000    15.4400    43.6850 ns         1 84N      -0.523900
      8 C3          50.8420    16.4220    44.3830 c          1 84N       0.580200
      9 O1          52.0440    16.4970    44.5660 o          1 84N      -0.557000
     10 C1          48.6230    16.9330    44.4370 c2         1 84N       0.120900
     11 O           47.3870    17.5040    44.5780 os         1 84N      -0.318100
     12 C           47.2720    18.7430    45.2960 c3         1 84N       0.141900
     13 C9          47.9420    14.7170    47.0290 ca         1 84N      -0.088800
     14 C10         46.8590    15.5850    47.2350 ca         1 84N      -0.065000
     15 C11         46.5660    15.9780    48.5580 ca         1 84N      -0.144000
     16 C12         47.3460    15.4960    49.6350 ca         1 84N      -0.093000
     17 C13         48.4210    14.6140    49.3950 ca         1 84N      -0.126000
     18 C7          49.5270    13.3350    46.2080 cd         1 84N      -0.141100
     19 H1          50.3680    12.9000    48.1770 hn         1 84N       0.353000
     20 H4          48.3250    15.6870    42.6720 h1         1 84N       0.077700
     21 H5          46.9230    14.6140    44.4100 hc         1 84N       0.056200
     22 H6          48.1320    13.5100    43.8090 hc         1 84N       0.056200
     23 H58         46.2260    19.0700    45.3290 h1         1 84N       0.049700
     24 H59         47.6260    18.6270    46.3290 h1         1 84N       0.049700
     25 H60         47.8620    19.5310    44.8110 h1         1 84N       0.049700
     26 H61         46.2580    15.9430    46.4030 ha         1 84N       0.116000
     27 H62         45.7350    16.6530    48.7500 ha         1 84N       0.109000
     28 H63         47.1140    15.8020    50.6530 ha         1 84N       0.110000
     29 H64         49.0220    14.2320    50.2170 ha         1 84N       0.114000
     30 H65         50.1890    12.7370    45.5880 h4         1 84N       0.212000
     31 H3          50.7300    14.6720    43.2950 hn         1 84N       0.326500
     32 H2          50.0750    18.2620    45.3680 ha         1 84N       0.220000
@<TRIPOS>BOND
     1     1     6 1   
     2     1    18 1   
     3     1    19 1   
     4     2     8 1   
     5     2    10 2   
     6     2    32 1   
     7     3     4 1   
     8     3     7 1   
     9     3    10 1   
    10     3    20 1   
    11     4     5 1   
    12     4    21 1   
    13     4    22 1   
    14     5    13 1   
    15     5    18 2   
    16     6    13 ar  
    17     6    17 ar  
    18     7     8 1   
    19     7    31 1   
    20     8     9 2   
    21    10    11 1   
    22    11    12 1   
    23    12    23 1   
    24    12    24 1   
    25    12    25 1   
    26    13    14 ar  
    27    14    15 ar  
    28    14    26 1   
    29    15    16 ar  
    30    15    27 1   
    31    16    17 ar  
    32    16    28 1   
    33    17    29 1   
    34    18    30 1   
@<TRIPOS>SUBSTRUCTURE
     1 84N         1 TEMP              0 ****  ****    0 ROOT
