@<TRIPOS>MOLECULE
84O
   40    41     1     0     0
SMALL
abcg2


@<TRIPOS>ATOM
      1 C1          26.1550     5.6280     9.8190 ca         1 84O      -0.164000
      2 C2          25.5180     4.4500     9.4950 ca         1 84O       0.250000
      3 C3          24.5640     3.8970    10.3470 ca         1 84O      -0.322500
      4 C4          24.2790     4.5580    11.5230 ca         1 84O       0.035000
      5 C5          24.9080     5.7500    11.8720 ca         1 84O      -0.160600
      6 C6          25.8730     6.3080    11.0080 ca         1 84O       0.001000
      7 C7          24.5380     6.4170    13.1420 c          1 84O       0.603700
      8 C10         23.3110     6.2230    15.1410 c3         1 84O       0.154900
      9 CL1         25.9290     3.6890     8.0070 cl         1 84O      -0.149000
     10 S11         23.7440     2.3750     9.9100 sy         1 84O       1.174600
     11 O13         22.9510     2.6430     8.7260 o          1 84O      -0.520000
     12 N14         22.7050     2.0100    11.1100 n8         1 84O      -1.040100
     13 O12         24.7570     1.3370     9.8930 o          1 84O      -0.520000
     14 O9          23.7640     5.6670    13.9060 os         1 84O      -0.449100
     15 O8          24.9030     7.5270    13.4450 o          1 84O      -0.466000
     16 S16         26.6730     7.8170    11.3990 ss         1 84O      -0.043000
     17 C17         28.0170     7.9720    10.1740 c6         1 84O       0.030300
     18 C22         29.1640     7.0060    10.4520 c6         1 84O      -0.069400
     19 C21         30.3180     7.2450     9.4820 c6         1 84O      -0.073400
     20 C20         30.7990     8.6900     9.5440 c6         1 84O      -0.076400
     21 C19         29.6490     9.6610     9.2980 c6         1 84O      -0.073400
     22 C18         28.4930     9.4220    10.2670 c6         1 84O      -0.069400
     23 H1          26.8740     6.0160     9.1150 ha         1 84O       0.139000
     24 H2          23.5400     4.1440    12.1940 ha         1 84O       0.121000
     25 H3          22.7030     5.4540    15.6060 h1         1 84O       0.051700
     26 H4          24.1460     6.4710    15.7950 h1         1 84O       0.051700
     27 H5          22.7040     7.1140    14.9750 h1         1 84O       0.051700
     28 H6          23.1170     1.7340    11.9940 hn         1 84O       0.491500
     29 H7          21.8980     2.6150    11.2060 hn         1 84O       0.491500
     30 H8          27.6170     7.8220     9.1670 h1         1 84O       0.071700
     31 H9          28.8280     5.9690    10.3890 hc         1 84O       0.053200
     32 H10         29.5080     7.1620    11.4800 hc         1 84O       0.053200
     33 H11         29.9890     7.0120     8.4640 hc         1 84O       0.043700
     34 H12         31.1360     6.5590     9.7110 hc         1 84O       0.043700
     35 H13         31.2300     8.8860    10.5310 hc         1 84O       0.043200
     36 H14         31.5950     8.8580     8.8160 hc         1 84O       0.043200
     37 H15         29.9930    10.6930     9.3930 hc         1 84O       0.043700
     38 H16         29.2870     9.5460     8.2710 hc         1 84O       0.043700
     39 H17         28.8240     9.6350    11.2890 hc         1 84O       0.053200
     40 H18         27.6690    10.1040    10.0460 hc         1 84O       0.053200
@<TRIPOS>BOND
     1     1     2 ar  
     2     1     6 ar  
     3     1    23 1   
     4     2     3 ar  
     5     2     9 1   
     6     3     4 ar  
     7     3    10 1   
     8     4     5 ar  
     9     4    24 1   
    10     5     6 ar  
    11     5     7 1   
    12     6    16 1   
    13     7    14 1   
    14     7    15 2   
    15     8    14 1   
    16     8    25 1   
    17     8    26 1   
    18     8    27 1   
    19    10    11 2   
    20    10    12 1   
    21    10    13 2   
    22    12    28 1   
    23    12    29 1   
    24    16    17 1   
    25    17    18 1   
    26    17    22 1   
    27    17    30 1   
    28    18    19 1   
    29    18    31 1   
    30    18    32 1   
    31    19    20 1   
    32    19    33 1   
    33    19    34 1   
    34    20    21 1   
    35    20    35 1   
    36    20    36 1   
    37    21    22 1   
    38    21    37 1   
    39    21    38 1   
    40    22    39 1   
    41    22    40 1   
@<TRIPOS>SUBSTRUCTURE
     1 84O         1 TEMP              0 ****  ****    0 ROOT
