@<TRIPOS>MOLECULE
84O
   40    41     1     0     0
SMALL
No Charge or Current Charge


@<TRIPOS>ATOM
      1 C1          25.3510     5.9690     9.0680 ca         1 84O      -0.164000
      2 C2          24.8650     4.6570     8.9710 ca         1 84O       0.250000
      3 C3          24.2170     4.0690    10.0780 ca         1 84O      -0.322500
      4 C4          24.0670     4.8170    11.2670 ca         1 84O       0.035000
      5 C5          24.5480     6.1410    11.3630 ca         1 84O      -0.160600
      6 C6          25.2030     6.7160    10.2480 ca         1 84O       0.001000
      7 C7          24.3530     6.8880    12.6600 c          1 84O       0.603700
      8 C10         24.3200     6.6730    15.0630 c3         1 84O       0.154900
      9 Cl1         25.1420     3.8100     7.4480 cl         1 84O      -0.149000
     10 S11         23.5620     2.4030    10.0180 sy         1 84O       1.174600
     11 O13         22.9310     2.0660    11.2910 o          1 84O      -0.520000
     12 N14         24.9240     1.4970    10.0040 n8         1 84O      -1.040100
     13 O12         22.9170     2.1440     8.7310 o          1 84O      -0.520000
     14 O9          24.4900     6.0810    13.7620 os         1 84O      -0.449100
     15 O8          24.0720     8.0770    12.7270 o          1 84O      -0.466000
     16 S16         25.9090     8.3650    10.3040 ss         1 84O      -0.043000
     17 C17         27.7000     8.0400     9.9820 c6         1 84O       0.030300
     18 C22         28.3250     7.1080    11.0560 c6         1 84O      -0.069400
     19 C21         29.8250     6.8430    10.7730 c6         1 84O      -0.073400
     20 C20         30.6180     8.1680    10.6640 c6         1 84O      -0.076400
     21 C19         30.0000     9.1000     9.5930 c6         1 84O      -0.073400
     22 C18         28.5010     9.3640     9.8790 c6         1 84O      -0.069400
     23 H1          25.8530     6.4070     8.2100 ha         1 84O       0.139000
     24 H2          23.5600     4.3780    12.1240 ha         1 84O       0.121000
     25 H3          24.4590     5.9180    15.8470 h1         1 84O       0.051700
     26 H4          25.0530     7.4730    15.2290 h1         1 84O       0.051700
     27 H5          23.3130     7.0950    15.1730 h1         1 84O       0.051700
     28 H6          25.5650     2.0730    10.5430 hn         1 84O       0.491500
     29 H7          24.6640     0.7600    10.6550 hn         1 84O       0.491500
     30 H8          27.7560     7.5330     9.0090 h1         1 84O       0.071700
     31 H9          27.7880     6.1510    11.0850 hc         1 84O       0.053200
     32 H10         28.2100     7.5590    12.0510 hc         1 84O       0.053200
     33 H11         29.9290     6.2700     9.8410 hc         1 84O       0.043700
     34 H12         30.2500     6.2190    11.5710 hc         1 84O       0.043700
     35 H13         30.6260     8.6760    11.6380 hc         1 84O       0.043200
     36 H14         31.6670     7.9560    10.4140 hc         1 84O       0.043200
     37 H15         30.5480    10.0520     9.5670 hc         1 84O       0.043700
     38 H16         30.1130     8.6470     8.5980 hc         1 84O       0.043700
     39 H17         28.3970     9.9340    10.8130 hc         1 84O       0.053200
     40 H18         28.0790     9.9920     9.0830 hc         1 84O       0.053200
@<TRIPOS>BOND
     1     1     2 ar  
     2     1     6 ar  
     3     1    23 1   
     4     2     3 ar  
     5     2     9 1   
     6     3     4 ar  
     7     3    10 1   
     8     4     5 ar  
     9     4    24 1   
    10     5     6 ar  
    11     5     7 1   
    12     6    16 1   
    13     7    14 1   
    14     7    15 2   
    15     8    14 1   
    16     8    25 1   
    17     8    26 1   
    18     8    27 1   
    19    10    11 2   
    20    10    12 1   
    21    10    13 2   
    22    12    28 1   
    23    12    29 1   
    24    16    17 1   
    25    17    18 1   
    26    17    22 1   
    27    17    30 1   
    28    18    19 1   
    29    18    31 1   
    30    18    32 1   
    31    19    20 1   
    32    19    33 1   
    33    19    34 1   
    34    20    21 1   
    35    20    35 1   
    36    20    36 1   
    37    21    22 1   
    38    21    37 1   
    39    21    38 1   
    40    22    39 1   
    41    22    40 1   
@<TRIPOS>SUBSTRUCTURE
     1 84O         1 TEMP              0 ****  ****    0 ROOT
