@<TRIPOS>MOLECULE
84P
   50    55     1     0     0
SMALL
abcg2


@<TRIPOS>ATOM
      1 C4           4.2720     1.2000     1.6660 cc         1 84P       0.257900
      2 C5           4.7330     2.4110    -0.1020 cd         1 84P      -0.146000
      3 C6          -2.6020    -0.3010    -0.1020 cc         1 84P      -0.224100
      4 C7           3.5000     0.2250    -0.5990 ca         1 84P       0.060000
      5 C8           4.1290     1.2200     0.2630 cc         1 84P      -0.168000
      6 C10          2.2270    -1.7430    -0.9320 ca         1 84P      -0.059200
      7 C13         -1.8580    -2.3360     2.6820 cc         1 84P      -0.015000
      8 C15         -0.2440    -2.6990     0.9450 cd         1 84P       0.280300
      9 C17         -6.0120     3.9290    -1.0450 cx         1 84P      -0.094900
     10 C1           3.6180     0.3380    -2.0110 ca         1 84P      -0.138000
     11 C2           3.0520    -0.5650    -2.8760 ca         1 84P      -0.024000
     12 C3           2.7910    -0.8290    -0.0460 ca         1 84P      -0.118000
     13 C9           2.3380    -1.6310    -2.3170 ca         1 84P       0.009400
     14 C11         -3.6130     0.0370     0.7760 cd         1 84P       0.193200
     15 C12         -2.4620    -1.4130     1.8140 cc         1 84P      -0.118000
     16 C14         -0.7400    -2.9800     2.2440 cd         1 84P      -0.169000
     17 C16         -4.8760     1.7050    -0.4760 c          1 84P       0.641100
     18 C18         -6.8400     2.8550    -1.6460 cx         1 84P      -0.094900
     19 C19         -6.0710     2.5770    -0.3800 cx         1 84P      -0.245700
     20 N22          4.9000     2.2720     2.1060 nd         1 84P      -0.524800
     21 N23          1.6670    -2.6750    -2.8840 nc         1 84P      -0.212400
     22 N24         -3.5250    -0.6400     1.9400 nd         1 84P      -0.312600
     23 N25          1.1720    -3.3890    -1.9500 nd         1 84P      -0.155400
     24 N26         -0.7930    -1.8490     0.1310 nc         1 84P      -0.439800
     25 N27         -1.8750    -1.2320     0.5800 na         1 84P       0.253900
     26 N28          5.1700     2.9940     1.0220 na         1 84P       0.136800
     27 N29          1.4990    -2.8720    -0.7660 na         1 84P       0.064600
     28 N30         -4.6510     0.9340     0.6190 ns         1 84P      -0.386100
     29 O31         -4.1480     1.6730    -1.4550 o          1 84P      -0.589100
     30 H1           3.9470     0.4430     2.3640 h4         1 84P       0.037100
     31 H2           4.8740     2.8770    -1.0640 h4         1 84P       0.156000
     32 H3          -2.3440     0.0090    -1.0960 h4         1 84P       0.274000
     33 H4          -2.2790    -2.5080     3.6630 ha         1 84P       0.149000
     34 H6          -6.5090     4.7410    -0.5320 hc         1 84P       0.083200
     35 H12          4.1780     1.1660    -2.4240 ha         1 84P       0.112000
     36 H13          3.1560    -0.4560    -3.9470 ha         1 84P       0.133000
     37 H14          2.6720    -0.9340     1.0250 ha         1 84P       0.122000
     38 H15         -0.2270    -3.6980     2.8690 ha         1 84P       0.134000
     39 H16         -7.9160     2.9160    -1.5540 hc         1 84P       0.083200
     40 H17         -6.4870     2.3820    -2.5530 hc         1 84P       0.083200
     41 H18         -6.6490     2.5100     0.5350 hc         1 84P       0.087700
     42 H19         -5.2810     1.0050     1.4050 hn         1 84P       0.337500
     43 C20          5.8660     4.2520     1.1450 c3         1 84P       0.071900
     44 C21          0.9810    -3.4250     0.4520 c3         1 84P       0.047300
     45 H5          -5.0870     4.2000    -1.5360 hc         1 84P       0.083200
     46 H7           5.2990     4.9380     1.7700 h1         1 84P       0.058033
     47 H8           6.8510     4.0990     1.5810 h1         1 84P       0.058033
     48 H9           5.9810     4.6890     0.1570 h1         1 84P       0.058033
     49 H10          1.7600    -3.4020     1.2140 h1         1 84P       0.085200
     50 H11          0.7450    -4.4750     0.2740 h1         1 84P       0.085200
@<TRIPOS>BOND
     1     1     5 1   
     2     1    20 2   
     3     1    30 1   
     4     2     5 2   
     5     2    26 1   
     6     2    31 1   
     7     3    14 2   
     8     3    25 1   
     9     3    32 1   
    10     4     5 1   
    11     4    10 ar  
    12     4    12 ar  
    13     6    12 ar  
    14     6    13 ar  
    15     6    27 1   
    16     7    15 1   
    17     7    16 2   
    18     7    33 1   
    19     8    16 1   
    20     8    24 2   
    21     8    44 1   
    22     9    18 1   
    23     9    19 1   
    24     9    34 1   
    25     9    45 1   
    26    10    11 ar  
    27    10    35 1   
    28    11    13 ar  
    29    11    36 1   
    30    12    37 1   
    31    13    21 1   
    32    14    22 1   
    33    14    28 1   
    34    15    22 2   
    35    15    25 1   
    36    16    38 1   
    37    17    19 1   
    38    17    28 1   
    39    17    29 2   
    40    18    19 1   
    41    18    39 1   
    42    18    40 1   
    43    19    41 1   
    44    20    26 1   
    45    21    23 2   
    46    23    27 1   
    47    24    25 1   
    48    26    43 1   
    49    27    44 1   
    50    28    42 1   
    51    43    46 1   
    52    43    47 1   
    53    43    48 1   
    54    44    49 1   
    55    44    50 1   
@<TRIPOS>SUBSTRUCTURE
     1 84P         1 TEMP              0 ****  ****    0 ROOT
