@<TRIPOS>MOLECULE
84P
   50    55     1     0     0
SMALL
No Charge or Current Charge


@<TRIPOS>ATOM
      1 C4           4.0800     1.0830     1.8420 cc         1 84P       0.257900
      2 C5           5.2740     1.9560     0.1880 cd         1 84P      -0.146000
      3 C6          -3.2810    -0.5710    -0.2320 cc         1 84P      -0.224100
      4 C7           3.8050     0.0750    -0.5450 ca         1 84P       0.060000
      5 C8           4.3510     0.9890     0.4660 cc         1 84P      -0.168000
      6 C10          2.3500    -1.7540    -1.1510 ca         1 84P      -0.059200
      7 C13         -0.9240    -0.7150     2.4440 cc         1 84P      -0.015000
      8 C15         -0.2560    -2.2140     0.6500 cd         1 84P       0.280300
      9 C17         -6.7500     3.4510    -0.4050 cx         1 84P      -0.094900
     10 C1           4.2060     0.1410    -1.9090 ca         1 84P      -0.138000
     11 C2           3.6710    -0.7450    -2.8710 ca         1 84P      -0.024000
     12 C3           2.8550    -0.9010    -0.1600 ca         1 84P      -0.118000
     13 C9           2.7310    -1.6940    -2.4520 ca         1 84P       0.009400
     14 C11         -3.8180     0.3310     0.6650 cd         1 84P       0.193200
     15 C12         -2.0290    -0.4000     1.6150 cc         1 84P      -0.118000
     16 C14         -0.0260    -1.6350     1.9590 cd         1 84P      -0.169000
     17 C16         -5.8310     1.0230    -0.6330 c          1 84P       0.641100
     18 C18         -7.3810     2.8590    -1.6440 cx         1 84P      -0.094900
     19 C19         -7.0070     1.9570    -0.4830 cx         1 84P      -0.245700
     20 N22          4.7580     2.0320     2.4540 nd         1 84P      -0.524800
     21 N23          2.0680    -2.6640    -3.2010 nc         1 84P      -0.212400
     22 N24         -3.0350     0.4310     1.8060 nd         1 84P      -0.312600
     23 N25          1.2700    -3.3270    -2.3600 nd         1 84P      -0.155400
     24 N26         -1.3040    -1.9360    -0.1470 nc         1 84P      -0.439800
     25 N27         -2.1600    -1.0070     0.4010 na         1 84P       0.253900
     26 N28          5.5070     2.5800     1.4190 na         1 84P       0.136800
     27 N29          1.4440    -2.7680    -1.1100 na         1 84P       0.064600
     28 N30         -4.9800     1.0390     0.4490 ns         1 84P      -0.386100
     29 O31         -5.6780     0.3230    -1.6240 o          1 84P      -0.589100
     30 H1           3.3970     0.4780     2.4230 h4         1 84P       0.037100
     31 H2           5.7710     2.2540    -0.7270 h4         1 84P       0.156000
     32 H3          -3.5830    -0.9190    -1.2090 h4         1 84P       0.274000
     33 H4          -0.8070    -0.2430     3.4150 ha         1 84P       0.149000
     34 H6          -7.3840     4.0430     0.2510 hc         1 84P       0.083200
     35 H12          4.9330     0.8770    -2.2370 ha         1 84P       0.112000
     36 H13          3.9800    -0.6920    -3.9120 ha         1 84P       0.133000
     37 H14          2.5250    -0.9890     0.8700 ha         1 84P       0.122000
     38 H15          0.8390    -1.9180     2.5480 ha         1 84P       0.134000
     39 H16         -8.4370     3.0540    -1.8160 hc         1 84P       0.083200
     40 H17         -6.7760     2.8160    -2.5470 hc         1 84P       0.083200
     41 H18         -7.8270     1.5650     0.1140 hc         1 84P       0.087700
     42 H19         -5.2770     1.6760     1.1760 hn         1 84P       0.337500
     43 C20          6.4270     3.6980     1.6680 c3         1 84P       0.071900
     44 C21          0.7200    -3.2200     0.0900 c3         1 84P       0.047300
     45 H5          -5.7250     3.8070    -0.4860 hc         1 84P       0.083200
     46 H7           5.8640     4.5570     2.0530 h1         1 84P       0.058033
     47 H8           7.1800     3.3950     2.4060 h1         1 84P       0.058033
     48 H9           6.9270     3.9820     0.7350 h1         1 84P       0.058033
     49 H10          1.4580    -3.4780     0.8580 h1         1 84P       0.085200
     50 H11          0.1730    -4.1380    -0.1560 h1         1 84P       0.085200
@<TRIPOS>BOND
     1     1     5 1   
     2     1    20 2   
     3     1    30 1   
     4     2     5 2   
     5     2    26 1   
     6     2    31 1   
     7     3    14 2   
     8     3    25 1   
     9     3    32 1   
    10     4     5 1   
    11     4    10 ar  
    12     4    12 ar  
    13     6    12 ar  
    14     6    13 ar  
    15     6    27 1   
    16     7    15 1   
    17     7    16 2   
    18     7    33 1   
    19     8    16 1   
    20     8    24 2   
    21     8    44 1   
    22     9    18 1   
    23     9    19 1   
    24     9    34 1   
    25     9    45 1   
    26    10    11 ar  
    27    10    35 1   
    28    11    13 ar  
    29    11    36 1   
    30    12    37 1   
    31    13    21 1   
    32    14    22 1   
    33    14    28 1   
    34    15    22 2   
    35    15    25 1   
    36    16    38 1   
    37    17    19 1   
    38    17    28 1   
    39    17    29 2   
    40    18    19 1   
    41    18    39 1   
    42    18    40 1   
    43    19    41 1   
    44    20    26 1   
    45    21    23 2   
    46    23    27 1   
    47    24    25 1   
    48    26    43 1   
    49    27    44 1   
    50    28    42 1   
    51    43    46 1   
    52    43    47 1   
    53    43    48 1   
    54    44    49 1   
    55    44    50 1   
@<TRIPOS>SUBSTRUCTURE
     1 84P         1 TEMP              0 ****  ****    0 ROOT
