@<TRIPOS>MOLECULE
84R
   39    42     1     0     0
SMALL
No Charge or Current Charge


@<TRIPOS>ATOM
      1 C32          5.1260     0.7080     0.1330 ca         1 84R      -0.262000
      2 C34          4.1000     1.6580     0.1380 ca         1 84R       0.159100
      3 C26          2.3990    -0.1230     0.0400 cp         1 84R      -0.075500
      4 C21         -1.0490    -3.6180    -0.1860 cc         1 84R      -0.294800
      5 C15         -1.2930     0.0210    -0.0420 ca         1 84R       0.439900
      6 O01         -4.0960     3.2740     0.2290 os         1 84R      -0.443000
      7 C02         -4.4850     1.9800     0.7470 c6         1 84R       0.141600
      8 C05         -3.2300     1.1310     1.1080 c6         1 84R       0.180800
      9 N08         -2.2710     1.0370    -0.0400 nh         1 84R      -0.776300
     10 C09         -1.9770     2.3660    -0.6730 c6         1 84R       0.180800
     11 C12         -3.2790     3.1730    -0.9610 c6         1 84R       0.141600
     12 C16         -1.6180    -1.3410    -0.0980 ca         1 84R      -0.329000
     13 C17         -0.5920    -2.2560    -0.1020 ca         1 84R       0.160800
     14 N18          0.6990    -1.8930    -0.0560 nb         1 84R      -0.184000
     15 C19          0.9540    -0.5640    -0.0090 cp         1 84R       0.238500
     16 N20          0.0010     0.4000    -0.0050 nb         1 84R      -0.278000
     17 C23         -2.4330    -3.6900    -0.2620 cd         1 84R      -0.147400
     18 S25         -3.2260    -2.0860    -0.2310 ss         1 84R       0.086400
     19 C27          2.7580     1.2530     0.0920 ca         1 84R      -0.147000
     20 C29          3.4690    -1.0630     0.0370 ca         1 84R      -0.173000
     21 C31          4.8080    -0.6500     0.0830 ca         1 84R       0.318000
     22 O35          4.4040     2.9840     0.1860 oh         1 84R      -0.536100
     23 N37          5.8140    -1.5730     0.0800 nv         1 84R      -1.076000
     24 H1           6.1660     1.0220     0.1680 ha         1 84R       0.111000
     25 H2          -0.3970    -4.4880    -0.1950 ha         1 84R       0.220000
     26 H4          -5.0870     1.4530    -0.0070 h1         1 84R       0.056200
     27 H5          -2.7310     1.5930     1.9720 h1         1 84R       0.062700
     28 H6          -3.5640     0.1350     1.4280 h1         1 84R       0.062700
     29 H7          -1.3300     2.9640    -0.0140 h1         1 84R       0.062700
     30 H8          -1.4400     2.2270    -1.6220 h1         1 84R       0.062700
     31 H9          -3.8560     2.6760    -1.7540 h1         1 84R       0.056200
     32 H10         -3.0220     4.1830    -1.3100 h1         1 84R       0.056200
     33 H11         -3.0480    -4.5810    -0.3370 h4         1 84R       0.220000
     34 H12          1.9900     2.0220     0.0980 ha         1 84R       0.146000
     35 H13          3.2600    -2.1280    -0.0030 ha         1 84R       0.138000
     36 H14          5.3800     3.0730     0.2120 ho         1 84R       0.462000
     37 H15          6.7690    -1.2740     0.2660 hn         1 84R       0.450500
     38 H16          5.5980    -2.5600     0.2020 hn         1 84R       0.450500
     39 H3          -5.1080     2.1210     1.6410 h1         1 84R       0.056200
@<TRIPOS>BOND
     1     1     2 ar  
     2     1    21 ar  
     3     1    24 1   
     4     2    19 ar  
     5     2    22 1   
     6     3    15 1   
     7     3    19 ar  
     8     3    20 ar  
     9     4    13 1   
    10     4    17 2   
    11     4    25 1   
    12     5     9 1   
    13     5    12 ar  
    14     5    16 ar  
    15     6     7 1   
    16     6    11 1   
    17     7     8 1   
    18     7    26 1   
    19     7    39 1   
    20     8     9 1   
    21     8    27 1   
    22     8    28 1   
    23     9    10 1   
    24    10    11 1   
    25    10    29 1   
    26    10    30 1   
    27    11    31 1   
    28    11    32 1   
    29    12    13 ar  
    30    12    18 1   
    31    13    14 ar  
    32    14    15 ar  
    33    15    16 ar  
    34    17    18 1   
    35    17    33 1   
    36    19    34 1   
    37    20    21 ar  
    38    20    35 1   
    39    21    23 1   
    40    22    36 1   
    41    23    37 1   
    42    23    38 1   
@<TRIPOS>SUBSTRUCTURE
     1 84R         1 TEMP              0 ****  ****    0 ROOT
