@<TRIPOS>MOLECULE
84R
   39    42     1     0     0
SMALL
bcc


@<TRIPOS>ATOM
      1 C32          4.9810     0.7410    -0.1360 ca         1 84R      -0.280000
      2 C34          3.9480     1.6640    -0.0240 ca         1 84R       0.159100
      3 C26          2.3390    -0.1150     0.0000 cp         1 84R      -0.075500
      4 C21         -1.0240    -3.6030     0.1170 cc         1 84R      -0.244800
      5 C15         -1.2940     0.0470     0.1730 ca         1 84R       0.768200
      6 O01         -4.0390     3.1920    -0.0450 os         1 84R      -0.396600
      7 C02         -4.4880     1.8630     0.0810 c6         1 84R       0.118400
      8 C05         -3.4840     1.0100     0.8330 c6         1 84R       0.180800
      9 N08         -2.1900     1.0640     0.1700 nh         1 84R      -0.776300
     10 C09         -1.7280     2.4340     0.0020 c6         1 84R       0.180800
     11 C12         -2.7980     3.2410    -0.7120 c6         1 84R       0.118400
     12 C16         -1.6290    -1.3300     0.1890 ca         1 84R      -0.332700
     13 C17         -0.5710    -2.2450     0.1500 ca         1 84R       0.489100
     14 N18          0.7160    -1.8780     0.1080 nb         1 84R      -0.710000
     15 C19          0.9310    -0.5790     0.0750 cp         1 84R       0.764500
     16 N20         -0.0080     0.3660     0.1090 nb         1 84R      -0.804000
     17 C23         -2.3720    -3.6870     0.1000 cd         1 84R      -0.097400
     18 S25         -3.1520    -2.1530     0.1370 ss         1 84R      -0.040500
     19 C27          2.6230     1.2480     0.0410 ca         1 84R      -0.165000
     20 C29          3.3660    -1.0470    -0.1080 ca         1 84R      -0.191000
     21 C31          4.6960    -0.6280    -0.1820 ca         1 84R       0.179600
     22 O35          4.1850     2.9920     0.0280 oh         1 84R      -0.497100
     23 N37          5.7100    -1.5430    -0.3530 nv         1 84R      -0.827200
     24 H1           6.0110     1.0800    -0.1900 ha         1 84R       0.129000
     25 H2          -0.3560    -4.4520     0.0940 ha         1 84R       0.170000
     26 H4          -4.6760     1.4180    -0.9060 h1         1 84R       0.056200
     27 H5          -3.3790     1.3750     1.8610 h1         1 84R       0.062700
     28 H6          -3.8720    -0.0020     0.9010 h1         1 84R       0.062700
     29 H7          -1.4940     2.8810     0.9760 h1         1 84R       0.062700
     30 H8          -0.8180     2.4460    -0.5920 h1         1 84R       0.062700
     31 H9          -2.9000     2.8720    -1.7420 h1         1 84R       0.056200
     32 H10         -2.4920     4.2870    -0.7580 h1         1 84R       0.056200
     33 H11         -2.9750    -4.5810     0.0670 h4         1 84R       0.170000
     34 H12          1.8270     1.9750     0.1260 ha         1 84R       0.164000
     35 H13          3.1340    -2.1040    -0.1360 ha         1 84R       0.156000
     36 H14          5.1320     3.1650    -0.0050 ho         1 84R       0.423000
     37 H15          6.6290    -1.2490    -0.0630 hn         1 84R       0.395300
     38 H16          5.5060    -2.4850    -0.0610 hn         1 84R       0.395300
     39 H3          -5.4310     1.8840     0.6280 h1         1 84R       0.056200
@<TRIPOS>BOND
     1     1     2 ar  
     2     1    21 ar  
     3     1    24 1   
     4     2    19 ar  
     5     2    22 1   
     6     3    15 1   
     7     3    19 ar  
     8     3    20 ar  
     9     4    13 1   
    10     4    17 2   
    11     4    25 1   
    12     5     9 1   
    13     5    12 ar  
    14     5    16 ar  
    15     6     7 1   
    16     6    11 1   
    17     7     8 1   
    18     7    26 1   
    19     7    39 1   
    20     8     9 1   
    21     8    27 1   
    22     8    28 1   
    23     9    10 1   
    24    10    11 1   
    25    10    29 1   
    26    10    30 1   
    27    11    31 1   
    28    11    32 1   
    29    12    13 ar  
    30    12    18 1   
    31    13    14 ar  
    32    14    15 ar  
    33    15    16 ar  
    34    17    18 1   
    35    17    33 1   
    36    19    34 1   
    37    20    21 ar  
    38    20    35 1   
    39    21    23 1   
    40    22    36 1   
    41    23    37 1   
    42    23    38 1   
@<TRIPOS>SUBSTRUCTURE
     1 84R         1 TEMP              0 ****  ****    0 ROOT
