@<TRIPOS>MOLECULE
84S
   50    55     1     0     0
SMALL
No Charge or Current Charge


@<TRIPOS>ATOM
      1 C4          -6.0540    -0.5260    -0.1480 cc         1 84S      -0.172000
      2 C5           5.1330    -0.0820    -0.4820 cc         1 84S       0.199200
      3 C6           3.4330     1.0670    -1.0440 cd         1 84S      -0.101000
      4 C7          -2.8740     1.4500     1.7290 cd         1 84S      -0.098000
      5 C8          -1.3440     0.7330     0.3020 cd         1 84S       0.212800
      6 C10         -4.1590     1.6160     2.3180 cd         1 84S      -0.076000
      7 C13         -3.6820     0.0100    -0.0590 cd         1 84S      -0.102000
      8 C15          0.8430     0.3580    -0.9090 cc         1 84S       0.258300
      9 C17          9.2190    -0.3630     1.1700 cx         1 84S      -0.094900
     10 C20         -9.4620    -1.6070    -0.7090 c3         1 84S       0.070900
     11 C21         -0.6510     0.0390    -0.8580 c3         1 84S       0.172400
     12 C1          -6.0030    -1.3400    -1.2960 cc         1 84S       0.259900
     13 C2          -7.3600    -0.5020     0.2480 cd         1 84S      -0.145000
     14 C3           4.0790    -0.9220    -0.2050 cd         1 84S      -0.231100
     15 C9           2.5190     2.0560    -1.4930 cd         1 84S      -0.025000
     16 C11          1.2000     1.6730    -1.4150 cc         1 84S      -0.131000
     17 C12         -5.1920     0.9590     1.6830 cc         1 84S      -0.085000
     18 C14         -4.9550     0.1560     0.4970 cc         1 84S       0.002000
     19 C16          7.0730    -1.4760     0.1950 c          1 84S       0.642100
     20 C18          9.2950    -1.8320     1.5130 cx         1 84S      -0.094900
     21 C19          8.5790    -1.3870     0.2510 cx         1 84S      -0.246700
     22 N22         -7.1740    -1.8280    -1.6520 nd         1 84S      -0.515800
     23 N23          4.7510     1.1340    -0.9940 nc         1 84S      -0.314600
     24 N24         -1.7170     1.9530     2.1220 nc         1 84S      -0.091000
     25 N25         -0.7440     1.4980     1.2200 nc         1 84S      -0.310700
     26 N26          1.7070    -0.5800    -0.4800 nd         1 84S      -0.417800
     27 N27          3.0140    -0.1540    -0.5760 na         1 84S       0.252900
     28 N28         -8.0240    -1.3050    -0.6860 na         1 84S       0.140800
     29 N29         -2.6730     0.7040     0.6200 na         1 84S       0.060200
     30 O31          6.4640    -2.4750     0.5510 o          1 84S      -0.588100
     31 F32         -0.8520    -1.3010    -0.7680 f          1 84S      -0.096000
     32 F33         -1.2320     0.4020    -2.0280 f          1 84S      -0.096000
     33 H1          -4.3170     2.2180     3.2080 ha         1 84S       0.151000
     34 H2          -3.4210    -0.5690    -0.9340 h4         1 84S       0.162000
     35 H4          10.1310     0.1250     0.8320 hc         1 84S       0.083200
     36 H5          -9.8960    -1.2520    -1.6500 h1         1 84S       0.060367
     37 H6          -9.6090    -2.6900    -0.6240 h1         1 84S       0.060367
     38 H7          -9.9590    -1.1070     0.1310 h1         1 84S       0.060367
     39 H8          -5.1380    -1.5950    -1.8930 h4         1 84S       0.043100
     40 H9          -7.8660    -0.0120     1.0710 h4         1 84S       0.156000
     41 H10          4.0070    -1.9240     0.1960 h4         1 84S       0.273000
     42 H11          2.8320     3.0280    -1.8630 ha         1 84S       0.151000
     43 H12          0.4170     2.3570    -1.7260 ha         1 84S       0.147000
     44 H13         -6.1950     1.0470     2.0830 ha         1 84S       0.125000
     45 H14         10.2560    -2.3290     1.4040 hc         1 84S       0.083200
     46 H15          8.6950    -2.1870     2.3490 hc         1 84S       0.083200
     47 H16          9.0820    -1.5880    -0.6910 hc         1 84S       0.088700
     48 N30          6.4750    -0.3410    -0.2980 ns         1 84S      -0.386100
     49 H3           8.5720     0.2620     1.7820 hc         1 84S       0.083200
     50 H17          7.1250     0.3890    -0.5520 hn         1 84S       0.338500
@<TRIPOS>BOND
     1     1    12 1   
     2     1    13 2   
     3     1    18 1   
     4     2    14 2   
     5     2    23 1   
     6     2    48 1   
     7     3    15 1   
     8     3    23 2   
     9     3    27 1   
    10     4     6 1   
    11     4    24 2   
    12     4    29 1   
    13     5    11 1   
    14     5    25 2   
    15     5    29 1   
    16     6    17 2   
    17     6    33 1   
    18     7    18 2   
    19     7    29 1   
    20     7    34 1   
    21     8    11 1   
    22     8    16 1   
    23     8    26 2   
    24     9    20 1   
    25     9    21 1   
    26     9    35 1   
    27     9    49 1   
    28    10    28 1   
    29    10    36 1   
    30    10    37 1   
    31    10    38 1   
    32    11    31 1   
    33    11    32 1   
    34    12    22 2   
    35    12    39 1   
    36    13    28 1   
    37    13    40 1   
    38    14    27 1   
    39    14    41 1   
    40    15    16 2   
    41    15    42 1   
    42    16    43 1   
    43    17    18 1   
    44    17    44 1   
    45    19    21 1   
    46    19    30 2   
    47    19    48 1   
    48    20    21 1   
    49    20    45 1   
    50    20    46 1   
    51    21    47 1   
    52    22    28 1   
    53    24    25 1   
    54    26    27 1   
    55    48    50 1   
@<TRIPOS>SUBSTRUCTURE
     1 84S         1 TEMP              0 ****  ****    0 ROOT
