@<TRIPOS>MOLECULE
84S
   50    55     1     0     0
SMALL
abcg2


@<TRIPOS>ATOM
      1 C4          -5.9530    -0.7380     0.0130 cc         1 84S      -0.172000
      2 C5           5.0950     0.2660    -0.4410 cc         1 84S       0.199200
      3 C6           3.4400     1.2830    -1.2970 cd         1 84S      -0.101000
      4 C7          -2.7620     1.6110     1.5110 cd         1 84S      -0.098000
      5 C8          -1.2940     0.9150     0.0910 cd         1 84S       0.212800
      6 C10         -4.0280     1.7000     2.1260 cd         1 84S      -0.076000
      7 C13         -3.6250     0.0090    -0.0700 cd         1 84S      -0.102000
      8 C15          0.8360     0.6100    -1.1530 cc         1 84S       0.258300
      9 C17          9.0360    -1.4450     1.9690 cx         1 84S      -0.094900
     10 C20         -9.3700    -1.7390    -0.5220 c3         1 84S       0.070900
     11 C21         -0.6130     0.2090    -1.0240 c3         1 84S       0.172400
     12 C1          -5.9010    -1.8950    -0.7910 cc         1 84S       0.259900
     13 C2          -7.3070    -0.5480     0.2210 cd         1 84S      -0.145000
     14 C3           3.9980    -0.4850    -0.0690 cd         1 84S      -0.231100
     15 C9           2.5130     2.1120    -1.9430 cd         1 84S      -0.025000
     16 C11          1.1940     1.7730    -1.8710 cc         1 84S      -0.131000
     17 C12         -5.0410     0.9440     1.6350 cc         1 84S      -0.085000
     18 C14         -4.8520     0.0720     0.5140 cc         1 84S       0.002000
     19 C16          6.9490    -0.9540     0.5680 c          1 84S       0.642100
     20 C18          9.1400    -2.2620     0.7370 cx         1 84S      -0.094900
     21 C19          8.4260    -0.9350     0.6880 cx         1 84S      -0.246700
     22 N22         -7.1070    -2.3590    -1.0450 nd         1 84S      -0.515800
     23 N23          4.7510     1.3380    -1.1870 nc         1 84S      -0.314600
     24 N24         -1.6170     2.2140     1.7760 nc         1 84S      -0.091000
     25 N25         -0.7230     1.7730     0.8910 nc         1 84S      -0.310700
     26 N26          1.6760    -0.1680    -0.5400 nd         1 84S      -0.417800
     27 N27          2.9440     0.1800    -0.6250 na         1 84S       0.252900
     28 N28         -7.9440    -1.5320    -0.4270 na         1 84S       0.140800
     29 N29         -2.6050     0.7680     0.4390 na         1 84S       0.060200
     30 O31          6.2460    -1.8120     1.0740 o          1 84S      -0.588100
     31 F32         -0.7230    -1.1310    -0.8460 f          1 84S      -0.096000
     32 F33         -1.2610     0.4810    -2.1930 f          1 84S      -0.096000
     33 H1          -4.1570     2.3570     2.9740 ha         1 84S       0.151000
     34 H2          -3.4070    -0.6040    -0.9290 h4         1 84S       0.162000
     35 H4           9.9150    -0.9270     2.3260 hc         1 84S       0.083200
     36 H5          -9.7100    -1.5810    -1.5440 h1         1 84S       0.060367
     37 H6          -9.6210    -2.7500    -0.2120 h1         1 84S       0.060367
     38 H7          -9.8730    -1.0330     0.1320 h1         1 84S       0.060367
     39 H8          -5.0310    -2.4090    -1.1720 h4         1 84S       0.043100
     40 H9          -7.8460     0.2120     0.7640 h4         1 84S       0.156000
     41 H10          3.8680    -1.3790     0.5100 h4         1 84S       0.273000
     42 H11          2.8550     2.9880    -2.4750 ha         1 84S       0.151000
     43 H12          0.4410     2.3810    -2.3500 ha         1 84S       0.147000
     44 H13         -6.0120     0.9910     2.1080 ha         1 84S       0.125000
     45 H14         10.0930    -2.3170     0.2270 hc         1 84S       0.083200
     46 H15          8.5310    -3.1530     0.6620 hc         1 84S       0.083200
     47 H16          8.9420    -0.1210     0.1920 hc         1 84S       0.088700
     48 N30          6.4310     0.0680    -0.1650 ns         1 84S      -0.386100
     49 H3           8.3560    -1.7730     2.7440 hc         1 84S       0.083200
     50 H17          7.0570     0.7560    -0.5570 hn         1 84S       0.338500
@<TRIPOS>BOND
     1     1    12 1   
     2     1    13 2   
     3     1    18 1   
     4     2    14 2   
     5     2    23 1   
     6     2    48 1   
     7     3    15 1   
     8     3    23 2   
     9     3    27 1   
    10     4     6 1   
    11     4    24 2   
    12     4    29 1   
    13     5    11 1   
    14     5    25 2   
    15     5    29 1   
    16     6    17 2   
    17     6    33 1   
    18     7    18 2   
    19     7    29 1   
    20     7    34 1   
    21     8    11 1   
    22     8    16 1   
    23     8    26 2   
    24     9    20 1   
    25     9    21 1   
    26     9    35 1   
    27     9    49 1   
    28    10    28 1   
    29    10    36 1   
    30    10    37 1   
    31    10    38 1   
    32    11    31 1   
    33    11    32 1   
    34    12    22 2   
    35    12    39 1   
    36    13    28 1   
    37    13    40 1   
    38    14    27 1   
    39    14    41 1   
    40    15    16 2   
    41    15    42 1   
    42    16    43 1   
    43    17    18 1   
    44    17    44 1   
    45    19    21 1   
    46    19    30 2   
    47    19    48 1   
    48    20    21 1   
    49    20    45 1   
    50    20    46 1   
    51    21    47 1   
    52    22    28 1   
    53    24    25 1   
    54    26    27 1   
    55    48    50 1   
@<TRIPOS>SUBSTRUCTURE
     1 84S         1 TEMP              0 ****  ****    0 ROOT
