@<TRIPOS>MOLECULE
84U
   52    56     1     0     0
SMALL
bcc


@<TRIPOS>ATOM
      1 O01         -7.2080     1.9320     0.1500 os         1 84U      -0.394600
      2 C02         -7.2530     0.5260     0.1280 c6         1 84U       0.119400
      3 C05         -6.0140    -0.0850     0.7560 c6         1 84U       0.177300
      4 N08         -4.8130     0.4130     0.1010 nh         1 84U      -0.766300
      5 C09         -4.7810     1.8700     0.0490 c6         1 84U       0.177300
      6 C12         -6.0740     2.3940    -0.5460 c6         1 84U       0.119400
      7 C15         -3.6350    -0.2640     0.1060 ca         1 84U       0.762200
      8 C16         -3.5010    -1.6750     0.1090 ca         1 84U      -0.330700
      9 C17         -2.1990    -2.1920     0.0850 ca         1 84U       0.489100
     10 N18         -1.1030    -1.4240     0.0630 nb         1 84U      -0.709000
     11 C19         -1.3250    -0.1270     0.0390 cp         1 84U       0.763500
     12 N20         -2.5220     0.4570     0.0640 nb         1 84U      -0.803000
     13 C21         -2.1810    -3.6230     0.0510 cc         1 84U      -0.244800
     14 C23         -3.4260    -4.1460     0.0240 cd         1 84U      -0.098400
     15 S25         -4.6670    -2.9540     0.0490 ss         1 84U      -0.038500
     16 C26         -0.1490     0.7780    -0.0130 cp         1 84U      -0.072500
     17 C27         -0.3440     2.1570    -0.0830 ca         1 84U      -0.169000
     18 C29          1.1320     0.2460     0.0060 ca         1 84U      -0.194000
     19 C31          2.2520     1.0860    -0.0440 ca         1 84U       0.198600
     20 C32          2.0570     2.4700    -0.1030 ca         1 84U      -0.286000
     21 C34          0.7660     2.9900    -0.1300 ca         1 84U       0.161100
     22 O35          0.5410     4.3190    -0.1940 oh         1 84U      -0.497100
     23 N37          3.5060     0.5270    -0.0630 nu         1 84U      -0.758600
     24 C39          4.7000     1.3130     0.1500 c3         1 84U       0.262100
     25 C42          5.9220     0.4430     0.0390 ca         1 84U      -0.126300
     26 C43          6.2190    -0.2020    -1.1610 ca         1 84U      -0.086000
     27 C45          7.3380    -1.0110    -1.2800 ca         1 84U      -0.173000
     28 C47          8.1600    -1.1660    -0.1780 ca         1 84U       0.142900
     29 C48          7.8980    -0.5470     1.0260 ca         1 84U      -0.173000
     30 C50          6.7690     0.2570     1.1250 ca         1 84U      -0.086000
     31 F52          9.2490    -1.9450    -0.2880 f          1 84U      -0.142900
     32 H1          -8.1320     0.2120     0.6910 h1         1 84U       0.056200
     33 H2          -7.3590     0.1580    -0.9020 h1         1 84U       0.056200
     34 H3          -5.9780     0.1530     1.8260 h1         1 84U       0.061700
     35 H4          -6.1060    -1.1640     0.6760 h1         1 84U       0.061700
     36 H5          -4.6220     2.2850     1.0520 h1         1 84U       0.061700
     37 H6          -3.9520     2.1990    -0.5730 h1         1 84U       0.061700
     38 H7          -6.1290     2.1050    -1.6050 h1         1 84U       0.056200
     39 H8          -6.0760     3.4840    -0.4960 h1         1 84U       0.056200
     40 H9          -1.2720    -4.2080     0.0390 ha         1 84U       0.170000
     41 H10         -3.7000    -5.1890    -0.0100 h4         1 84U       0.170000
     42 H11         -1.3410     2.5730    -0.0970 ha         1 84U       0.164000
     43 H12          1.2660    -0.8270     0.0550 ha         1 84U       0.156000
     44 H13          2.9000     3.1500    -0.1230 ha         1 84U       0.129000
     45 H14          1.3750     4.8010    -0.2290 ho         1 84U       0.423000
     46 H15          3.5530    -0.4110     0.3030 hn         1 84U       0.419800
     47 H16          4.7490     2.0990    -0.6090 h1         1 84U       0.043200
     48 H17          4.6970     1.8210     1.1240 h1         1 84U       0.043200
     49 H18          5.5700    -0.0710    -2.0180 ha         1 84U       0.141000
     50 H19          7.5690    -1.5100    -2.2120 ha         1 84U       0.152500
     51 H20          8.5560    -0.6900     1.8740 ha         1 84U       0.152500
     52 H21          6.5500     0.7450     2.0660 ha         1 84U       0.141000
@<TRIPOS>BOND
     1     1     2 1   
     2     1     6 1   
     3     2     3 1   
     4     2    32 1   
     5     2    33 1   
     6     3     4 1   
     7     3    34 1   
     8     3    35 1   
     9     4     5 1   
    10     4     7 1   
    11     5     6 1   
    12     5    36 1   
    13     5    37 1   
    14     6    38 1   
    15     6    39 1   
    16     7     8 ar  
    17     7    12 ar  
    18     8     9 ar  
    19     8    15 1   
    20     9    10 ar  
    21     9    13 1   
    22    10    11 ar  
    23    11    12 ar  
    24    11    16 1   
    25    13    14 2   
    26    13    40 1   
    27    14    15 1   
    28    14    41 1   
    29    16    17 ar  
    30    16    18 ar  
    31    17    21 ar  
    32    17    42 1   
    33    18    19 ar  
    34    18    43 1   
    35    19    20 ar  
    36    19    23 1   
    37    20    21 ar  
    38    20    44 1   
    39    21    22 1   
    40    22    45 1   
    41    23    24 1   
    42    23    46 1   
    43    24    25 1   
    44    24    47 1   
    45    24    48 1   
    46    25    26 ar  
    47    25    30 ar  
    48    26    27 ar  
    49    26    49 1   
    50    27    28 ar  
    51    27    50 1   
    52    28    29 ar  
    53    28    31 1   
    54    29    30 ar  
    55    29    51 1   
    56    30    52 1   
@<TRIPOS>SUBSTRUCTURE
     1 84U         1 TEMP              0 ****  ****    0 ROOT
