@<TRIPOS>MOLECULE
84U
   52    56     1     0     0
SMALL
No Charge or Current Charge


@<TRIPOS>ATOM
      1 O01         -7.3920     1.8100     0.2830 os         1 84U      -0.441000
      2 C02         -7.2950     0.4610     0.7990 c6         1 84U       0.142600
      3 C05         -5.8180     0.1110     1.1470 c6         1 84U       0.177300
      4 N08         -4.8970     0.3630    -0.0090 nh         1 84U      -0.766300
      5 C09         -5.0970     1.7100    -0.6380 c6         1 84U       0.177300
      6 C12         -6.6020     2.0050    -0.9140 c6         1 84U       0.142600
      7 C15         -3.6240    -0.2430    -0.0220 ca         1 84U       0.433900
      8 C16         -3.4480    -1.6320    -0.0830 ca         1 84U      -0.327000
      9 C17         -2.1660    -2.1270    -0.1000 ca         1 84U       0.160800
     10 N18         -1.0850    -1.3320    -0.0620 nb         1 84U      -0.183000
     11 C19         -1.3140     0.0020    -0.0100 cp         1 84U       0.237500
     12 N20         -2.5460     0.5680     0.0070 nb         1 84U      -0.277000
     13 C21         -2.1130    -3.5620    -0.1870 cc         1 84U      -0.294800
     14 C23         -3.3840    -4.1170    -0.2530 cd         1 84U      -0.148400
     15 S25         -4.6920    -2.8960    -0.2080 ss         1 84U       0.088400
     16 C26         -0.1170     0.9240     0.0290 cp         1 84U      -0.072500
     17 C27         -0.2660     2.3370     0.0820 ca         1 84U      -0.151000
     18 C29          1.2150     0.4220     0.0120 ca         1 84U      -0.176000
     19 C31          2.3280     1.2750     0.0480 ca         1 84U       0.337000
     20 C32          2.1420     2.6630     0.1000 ca         1 84U      -0.268000
     21 C34          0.8470     3.1880     0.1170 ca         1 84U       0.161100
     22 O35          0.6630     4.5360     0.1690 oh         1 84U      -0.536100
     23 N37          3.6060     0.7200     0.0290 nu         1 84U      -0.952200
     24 C39          4.8920     1.4250     0.0570 c3         1 84U       0.262100
     25 C42          6.0290     0.4150     0.0210 ca         1 84U      -0.126300
     26 C43          6.5590    -0.0130    -1.2140 ca         1 84U      -0.068000
     27 C45          7.6110    -0.9460    -1.2460 ca         1 84U      -0.155000
     28 C47          8.1330    -1.4530    -0.0460 ca         1 84U       0.178000
     29 C48          7.6100    -1.0340     1.1870 ca         1 84U      -0.155000
     30 C50          6.5580    -0.1010     1.2210 ca         1 84U      -0.068000
     31 F52          9.1420    -2.3500    -0.0780 f          1 84U      -0.178000
     32 H1          -7.9200     0.3720     1.6980 h1         1 84U       0.056200
     33 H2          -7.6780    -0.2440     0.0460 h1         1 84U       0.056200
     34 H3          -5.5070     0.7190     2.0090 h1         1 84U       0.061700
     35 H4          -5.7750    -0.9400     1.4660 h1         1 84U       0.061700
     36 H5          -4.6980     2.4980     0.0180 h1         1 84U       0.061700
     37 H6          -4.5530     1.7710    -1.5920 h1         1 84U       0.061700
     38 H7          -6.9730     1.3370    -1.7050 h1         1 84U       0.056200
     39 H8          -6.7220     3.0410    -1.2610 h1         1 84U       0.056200
     40 H9          -1.1960    -4.1460    -0.2060 ha         1 84U       0.220000
     41 H10         -3.6460    -5.1680    -0.3280 h4         1 84U       0.220000
     42 H11         -1.2550     2.7870     0.0980 ha         1 84U       0.146000
     43 H12          1.3920    -0.6490    -0.0280 ha         1 84U       0.138000
     44 H13          2.9970     3.3320     0.1280 ha         1 84U       0.111000
     45 H14          1.5450     4.9640     0.1870 ho         1 84U       0.462000
     46 H15          3.6520    -0.2980    -0.0100 hn         1 84U       0.475000
     47 H16          4.9730     2.1000    -0.8070 h1         1 84U       0.043200
     48 H17          4.9710     2.0350     0.9670 h1         1 84U       0.043200
     49 H18          6.1550     0.3770    -2.1460 ha         1 84U       0.123000
     50 H19          8.0210    -1.2770    -2.1970 ha         1 84U       0.134500
     51 H20          8.0180    -1.4320     2.1120 ha         1 84U       0.134500
     52 H21          6.1530     0.2210     2.1790 ha         1 84U       0.123000
@<TRIPOS>BOND
     1     1     2 1   
     2     1     6 1   
     3     2     3 1   
     4     2    32 1   
     5     2    33 1   
     6     3     4 1   
     7     3    34 1   
     8     3    35 1   
     9     4     5 1   
    10     4     7 1   
    11     5     6 1   
    12     5    36 1   
    13     5    37 1   
    14     6    38 1   
    15     6    39 1   
    16     7     8 ar  
    17     7    12 ar  
    18     8     9 ar  
    19     8    15 1   
    20     9    10 ar  
    21     9    13 1   
    22    10    11 ar  
    23    11    12 ar  
    24    11    16 1   
    25    13    14 2   
    26    13    40 1   
    27    14    15 1   
    28    14    41 1   
    29    16    17 ar  
    30    16    18 ar  
    31    17    21 ar  
    32    17    42 1   
    33    18    19 ar  
    34    18    43 1   
    35    19    20 ar  
    36    19    23 1   
    37    20    21 ar  
    38    20    44 1   
    39    21    22 1   
    40    22    45 1   
    41    23    24 1   
    42    23    46 1   
    43    24    25 1   
    44    24    47 1   
    45    24    48 1   
    46    25    26 ar  
    47    25    30 ar  
    48    26    27 ar  
    49    26    49 1   
    50    27    28 ar  
    51    27    50 1   
    52    28    29 ar  
    53    28    31 1   
    54    29    30 ar  
    55    29    51 1   
    56    30    52 1   
@<TRIPOS>SUBSTRUCTURE
     1 84U         1 TEMP              0 ****  ****    0 ROOT
