@<TRIPOS>MOLECULE
84W
   33    35     1     0     0
SMALL
bcc


@<TRIPOS>ATOM
      1 C4         -31.5620   -47.7370    -9.7100 cc         1 84W      -0.275300
      2 C5         -32.9180   -47.7510    -9.3170 cc         1 84W       0.325200
      3 C7         -30.7250   -46.5930   -10.0390 ca         1 84W       0.095000
      4 C8         -29.3770   -46.7640   -10.4050 ca         1 84W      -0.120000
      5 C10        -29.1010   -44.3940   -10.6760 ca         1 84W      -0.152600
      6 C15        -30.9230   -42.8420   -10.2890 cc         1 84W       0.327900
      7 C3         -31.2150   -49.0780    -9.7080 cd         1 84W      -0.087300
      8 C9         -28.5800   -45.6880   -10.7180 ca         1 84W      -0.046000
      9 N2         -32.3040   -49.7650    -9.3430 na         1 84W       0.131400
     10 N6         -33.3480   -48.9760    -9.1010 nd         1 84W      -0.502800
     11 C11        -28.2610   -43.2460   -11.0060 c          1 84W       0.705100
     12 C16        -32.3480   -42.5480    -9.9240 c3         1 84W       0.115500
     13 C18        -30.4400   -44.2020   -10.3140 ca         1 84W      -0.120900
     14 C19        -31.2380   -45.3030   -10.0000 ca         1 84W      -0.144000
     15 N13        -28.9110   -42.0440   -10.9130 ns         1 84W      -0.287900
     16 N14        -30.1810   -41.8380   -10.5750 nd         1 84W      -0.473300
     17 N17        -32.6190   -41.0960    -9.9370 nz         1 84W      -0.823600
     18 O12        -27.0880   -43.3050   -11.3350 o          1 84W      -0.558500
     19 H5         -33.5900   -46.9150    -9.1870 h4         1 84W       0.030100
     20 H8         -28.9490   -47.7570   -10.4430 ha         1 84W       0.152000
     21 H13        -33.1930   -51.5740    -9.8840 h1         1 84W       0.069033
     22 H11        -31.4810   -51.6610    -9.4390 h1         1 84W       0.069033
     23 H12        -32.7090   -51.4500    -8.1810 h1         1 84W       0.069033
     24 H3         -30.2890   -49.5800    -9.9380 h4         1 84W       0.182000
     25 H9         -27.5470   -45.8430   -10.9960 ha         1 84W       0.173000
     26 H161       -33.0400   -43.0150   -10.6240 hx         1 84W       0.114700
     27 H162       -32.5830   -42.9130    -8.9250 hx         1 84W       0.114700
     28 H19        -32.2730   -45.1510    -9.7230 ha         1 84W       0.125000
     29 H131       -28.3930   -41.2020   -11.1260 hn         1 84W       0.367500
     30 H171       -33.5990   -40.9120    -9.7190 hn         1 84W       0.464133
     31 H173       -32.0550   -40.5930    -9.2500 hn         1 84W       0.464133
     32 H172       -32.4250   -40.6750   -10.8480 hn         1 84W       0.464133
     33 C1         -32.4330   -51.1960    -9.2020 c3         1 84W       0.034600
@<TRIPOS>BOND
     1     1     2 1   
     2     1     3 1   
     3     1     7 2   
     4     2    10 2   
     5     2    19 1   
     6     3     4 ar  
     7     3    14 ar  
     8     4     8 ar  
     9     4    20 1   
    10     5     8 ar  
    11     5    11 1   
    12     5    13 ar  
    13     6    12 1   
    14     6    13 1   
    15     6    16 2   
    16     7     9 1   
    17     7    24 1   
    18     8    25 1   
    19     9    10 1   
    20     9    33 1   
    21    11    15 1   
    22    11    18 2   
    23    12    17 1   
    24    12    26 1   
    25    12    27 1   
    26    13    14 ar  
    27    14    28 1   
    28    15    16 1   
    29    15    29 1   
    30    17    30 1   
    31    17    31 1   
    32    17    32 1   
    33    21    33 1   
    34    22    33 1   
    35    23    33 1   
@<TRIPOS>SUBSTRUCTURE
     1 84W         1 TEMP              0 ****  ****    0 ROOT
