@<TRIPOS>MOLECULE
84W
   33    35     1     0     0
SMALL
No Charge or Current Charge


@<TRIPOS>ATOM
      1 C4         -31.5940   -47.7430    -9.7080 cc         1 84W      -0.210000
      2 C5         -32.9470   -47.7470    -9.3270 cc         1 84W       0.259900
      3 C7         -30.7080   -46.6210   -10.0460 ca         1 84W       0.095000
      4 C8         -29.3610   -46.8260   -10.4090 ca         1 84W      -0.102000
      5 C10        -29.0390   -44.4250   -10.6890 ca         1 84W      -0.152600
      6 C15        -30.9070   -42.8080   -10.2910 cc         1 84W       0.327900
      7 C3         -31.1950   -49.0500    -9.7170 cd         1 84W      -0.120000
      8 C9         -28.5320   -45.7380   -10.7270 ca         1 84W      -0.028000
      9 N2         -32.3370   -49.7660    -9.3390 na         1 84W       0.152800
     10 N6         -33.4330   -48.9480    -9.0960 nd         1 84W      -0.502800
     11 C11        -28.1660   -43.2510   -11.0270 c          1 84W       0.562600
     12 C16        -32.3500   -42.5100    -9.9090 c3         1 84W       0.087300
     13 C18        -30.3860   -44.1940   -10.3280 ca         1 84W      -0.120900
     14 C19        -31.2060   -45.3020   -10.0100 ca         1 84W      -0.126000
     15 N13        -28.8090   -42.0300   -10.9430 ns         1 84W      -0.220900
     16 N14        -30.1220   -41.7670   -10.5940 nd         1 84W      -0.473300
     17 N17        -32.7960   -41.0460    -9.8990 nz         1 84W      -0.961000
     18 O12        -26.9900   -43.3500   -11.3500 o          1 84W      -0.483000
     19 H5         -33.6030   -46.8950    -9.2100 h4         1 84W       0.030100
     20 H8         -28.9390   -47.8250   -10.4480 ha         1 84W       0.134000
     21 H13        -33.2080   -51.6050    -9.8800 h1         1 84W       0.069033
     22 H11        -31.4800   -51.6910    -9.4310 h1         1 84W       0.069033
     23 H12        -32.7210   -51.4690    -8.1630 h1         1 84W       0.069033
     24 H3         -30.2500   -49.5280    -9.9450 h4         1 84W       0.164000
     25 H9         -27.4950   -45.9200   -11.0050 ha         1 84W       0.155000
     26 H161       -32.9970   -43.0590   -10.6000 hx         1 84W       0.114700
     27 H162       -32.5220   -42.9250    -8.9110 hx         1 84W       0.114700
     28 H19        -32.2430   -45.1430    -9.7310 ha         1 84W       0.107000
     29 H131       -28.2130   -41.2380   -11.1730 hn         1 84W       0.367500
     30 H171       -33.7840   -40.9090    -9.6320 hn         1 84W       0.519333
     31 H173       -32.2420   -40.4660    -9.2490 hn         1 84W       0.519333
     32 H172       -32.6830   -40.5900   -10.8170 hn         1 84W       0.519333
     33 C1         -32.4420   -51.2240    -9.1940 c3         1 84W       0.063900
@<TRIPOS>BOND
     1     1     2 1   
     2     1     3 1   
     3     1     7 2   
     4     2    10 2   
     5     2    19 1   
     6     3     4 ar  
     7     3    14 ar  
     8     4     8 ar  
     9     4    20 1   
    10     5     8 ar  
    11     5    11 1   
    12     5    13 ar  
    13     6    12 1   
    14     6    13 1   
    15     6    16 2   
    16     7     9 1   
    17     7    24 1   
    18     8    25 1   
    19     9    10 1   
    20     9    33 1   
    21    11    15 1   
    22    11    18 2   
    23    12    17 1   
    24    12    26 1   
    25    12    27 1   
    26    13    14 ar  
    27    14    28 1   
    28    15    16 1   
    29    15    29 1   
    30    17    30 1   
    31    17    31 1   
    32    17    32 1   
    33    21    33 1   
    34    22    33 1   
    35    23    33 1   
@<TRIPOS>SUBSTRUCTURE
     1 84W         1 TEMP              0 ****  ****    0 ROOT
