@<TRIPOS>MOLECULE
84Z
   36    37     1     0     0
SMALL
No Charge or Current Charge


@<TRIPOS>ATOM
      1 O18         27.4700     7.4850    13.1580 o          1 84Z      -0.513500
      2 S16         27.6830     7.2370    11.7260 sy         1 84Z       1.012000
      3 O17         28.9770     6.7320    11.2450 o          1 84Z      -0.513500
      4 C19         27.3650     8.7760    10.8340 ca         1 84Z      -0.251500
      5 C24         27.2010     9.9920    11.5320 ca         1 84Z      -0.012000
      6 C23         26.9510    11.1800    10.8240 ca         1 84Z      -0.126500
      7 C22         26.8680    11.1640     9.4220 ca         1 84Z      -0.052000
      8 C21         27.0380     9.9560     8.7240 ca         1 84Z      -0.126500
      9 C20         27.2890     8.7640     9.4250 ca         1 84Z      -0.012000
     10 C3          26.3990     6.0950    11.1230 ca         1 84Z      -0.159500
     11 C2          26.7410     5.1730    10.1070 ca         1 84Z      -0.043000
     12 C4          25.0810     6.0670    11.6600 ca         1 84Z      -0.045600
     13 C12         24.5950     7.0210    12.7200 c          1 84Z       0.607700
     14 O14         24.6330     8.3330    12.3250 os         1 84Z      -0.438100
     15 C15         24.1820     9.3360    13.2530 c3         1 84Z       0.151900
     16 O13         24.1730     6.6450    13.8060 o          1 84Z      -0.452000
     17 C5          24.1630     5.1070    11.1870 ca         1 84Z      -0.021000
     18 C6          24.5120     4.1890    10.1720 ca         1 84Z      -0.242500
     19 C1          25.8150     4.2310     9.6300 ca         1 84Z       0.202000
     20 Cl1         26.3750     3.1160     8.3800 cl         1 84Z      -0.135000
     21 S7          23.2800     3.0080     9.6020 sy         1 84Z       1.170600
     22 O8          23.3230     2.8840     8.1450 o          1 84Z      -0.512500
     23 O9          22.0280     3.1940    10.3310 o          1 84Z      -0.512500
     24 N10         23.8560     1.5810    10.1640 n8         1 84Z      -1.044100
     25 H1          27.2640    10.0230    12.6180 ha         1 84Z       0.131500
     26 H2          26.8210    12.1150    11.3650 ha         1 84Z       0.121500
     27 H3          26.6740    12.0850     8.8770 ha         1 84Z       0.120000
     28 H4          26.9770     9.9440     7.6390 ha         1 84Z       0.121500
     29 H5          27.4210     7.8360     8.8710 ha         1 84Z       0.131500
     30 H6          27.7420     5.1680     9.6810 ha         1 84Z       0.162000
     31 H7          24.2690    10.3350    12.8070 h1         1 84Z       0.056033
     32 H8          23.1310     9.1750    13.5250 h1         1 84Z       0.056033
     33 H9          24.7860     9.3200    14.1700 h1         1 84Z       0.056033
     34 H10         23.1600     5.0960    11.6120 ha         1 84Z       0.122000
     35 H11         24.1630     1.8290    11.1010 hn         1 84Z       0.497500
     36 H12         22.9890     1.0760    10.3300 hn         1 84Z       0.497500
@<TRIPOS>BOND
     1     1     2 2   
     2     2     3 2   
     3     2     4 1   
     4     2    10 1   
     5     4     5 ar  
     6     4     9 ar  
     7     5     6 ar  
     8     5    25 1   
     9     6     7 ar  
    10     6    26 1   
    11     7     8 ar  
    12     7    27 1   
    13     8     9 ar  
    14     8    28 1   
    15     9    29 1   
    16    10    11 ar  
    17    10    12 ar  
    18    11    19 ar  
    19    11    30 1   
    20    12    13 1   
    21    12    17 ar  
    22    13    14 1   
    23    13    16 2   
    24    14    15 1   
    25    15    31 1   
    26    15    32 1   
    27    15    33 1   
    28    17    18 ar  
    29    17    34 1   
    30    18    19 ar  
    31    18    21 1   
    32    19    20 1   
    33    21    22 2   
    34    21    23 2   
    35    21    24 1   
    36    24    35 1   
    37    24    36 1   
@<TRIPOS>SUBSTRUCTURE
     1 84Z         1 TEMP              0 ****  ****    0 ROOT
