@<TRIPOS>MOLECULE
84Z
   36    37     1     0     0
SMALL
bcc


@<TRIPOS>ATOM
      1 O18         27.5940     7.4020    12.9020 o          1 84Z      -0.584300
      2 S16         27.7160     7.2990    11.4540 sy         1 84Z       1.153600
      3 O17         28.9860     6.8830    10.8750 o          1 84Z      -0.584300
      4 C19         27.2490     8.8360    10.7100 ca         1 84Z      -0.251500
      5 C24         27.0440     9.9440    11.5190 ca         1 84Z      -0.030000
      6 C23         26.7380    11.1580    10.9220 ca         1 84Z      -0.144500
      7 C22         26.6370    11.2510     9.5410 ca         1 84Z      -0.070000
      8 C21         26.8540    10.1340     8.7440 ca         1 84Z      -0.144500
      9 C20         27.1750     8.9180     9.3250 ca         1 84Z      -0.030000
     10 C3          26.4900     6.1080    10.9050 ca         1 84Z      -0.159500
     11 C2          26.8340     5.3030     9.8320 ca         1 84Z      -0.061000
     12 C4          25.3090     5.8980    11.6080 ca         1 84Z      -0.045600
     13 C12         24.8440     6.7280    12.7640 c          1 84Z       0.656700
     14 O14         24.7660     7.9970    12.4320 os         1 84Z      -0.414900
     15 C15         24.3380     8.9210    13.4380 c3         1 84Z       0.128700
     16 O13         24.5160     6.2560    13.8190 o          1 84Z      -0.501000
     17 C5          24.4860     4.8480    11.2260 ca         1 84Z      -0.039000
     18 C6          24.8040     4.0520    10.1400 ca         1 84Z      -0.242500
     19 C1          25.9770     4.2910     9.4330 ca         1 84Z       0.110400
     20 CL1         26.4190     3.3410     8.0730 cl         1 84Z      -0.043400
     21 S7          23.7340     2.6960     9.6520 sy         1 84Z       1.312200
     22 O8          24.4900     1.4840     9.8920 o          1 84Z      -0.583300
     23 O9          23.2350     3.0170     8.3310 o          1 84Z      -0.583300
     24 N10         22.4630     2.6810    10.6620 n8         1 84Z      -0.933700
     25 H1          27.1190     9.8700    12.5950 ha         1 84Z       0.149500
     26 H2          26.5740    12.0300    11.5410 ha         1 84Z       0.139500
     27 H3          26.3880    12.1990     9.0820 ha         1 84Z       0.138000
     28 H4          26.7790    10.2090     7.6680 ha         1 84Z       0.139500
     29 H5          27.3490     8.0530     8.6970 ha         1 84Z       0.149500
     30 H6          27.7670     5.4490     9.3060 ha         1 84Z       0.180000
     31 H7          24.3160     9.8930    12.9560 h1         1 84Z       0.056033
     32 H8          23.3430     8.6700    13.8020 h1         1 84Z       0.056033
     33 H9          25.0390     8.9410    14.2720 h1         1 84Z       0.056033
     34 H10         23.5760     4.6660    11.7830 ha         1 84Z       0.140000
     35 H11         22.6430     2.3950    11.6170 hn         1 84Z       0.442300
     36 H12         21.8030     3.4450    10.5730 hn         1 84Z       0.442300
@<TRIPOS>BOND
     1     1     2 2   
     2     2     3 2   
     3     2     4 1   
     4     2    10 1   
     5     4     5 ar  
     6     4     9 ar  
     7     5     6 ar  
     8     5    25 1   
     9     6     7 ar  
    10     6    26 1   
    11     7     8 ar  
    12     7    27 1   
    13     8     9 ar  
    14     8    28 1   
    15     9    29 1   
    16    10    11 ar  
    17    10    12 ar  
    18    11    19 ar  
    19    11    30 1   
    20    12    13 1   
    21    12    17 ar  
    22    13    14 1   
    23    13    16 2   
    24    14    15 1   
    25    15    31 1   
    26    15    32 1   
    27    15    33 1   
    28    17    18 ar  
    29    17    34 1   
    30    18    19 ar  
    31    18    21 1   
    32    19    20 1   
    33    21    22 2   
    34    21    23 2   
    35    21    24 1   
    36    24    35 1   
    37    24    36 1   
@<TRIPOS>SUBSTRUCTURE
     1 84Z         1 TEMP              0 ****  ****    0 ROOT
