@<TRIPOS>MOLECULE
851
   72    76     1     0     0
SMALL
abcg2


@<TRIPOS>ATOM
      1 O16          0.6940    -0.9730     0.2790 o          1 851      -0.595100
      2 C15          1.2750    -0.0790     0.8760 c          1 851       0.592100
      3 C8           2.7460     0.2290     0.6210 c3         1 851       0.040700
      4 C9           2.8880     1.5070    -0.2340 c6         1 851      -0.067700
      5 C14          4.3330     2.0040    -0.2430 c6         1 851      -0.073400
      6 C13          4.4670     3.2990    -1.0380 c6         1 851      -0.073400
      7 C12          3.9430     3.1330    -2.4610 c6         1 851      -0.075400
      8 C11          2.5070     2.6210    -2.4620 c6         1 851      -0.073400
      9 C10          2.3740     1.3280    -1.6620 c6         1 851      -0.073400
     10 N7           3.3690    -0.9200     0.0190 ns         1 851      -0.497900
     11 C5           4.5170    -1.4680     0.4570 c          1 851       0.595100
     12 O6           5.1920    -0.9920     1.3560 o          1 851      -0.590100
     13 C3           4.8920    -2.7630    -0.2570 c3         1 851       0.101500
     14 C4           4.1160    -3.9150     0.3830 c3         1 851      -0.088100
     15 N2           6.3210    -2.9770    -0.1580 n7         1 851      -0.843400
     16 C1           6.8120    -3.9880    -1.0740 c3         1 851       0.144100
     17 N17          0.6250     0.7190     1.7490 n          1 851      -0.419800
     18 C21          1.2150     1.6710     2.6910 c5         1 851       0.103000
     19 C20          0.2180     1.6760     3.8400 c5         1 851      -0.097400
     20 C19         -1.1170     1.4870     3.1320 c5         1 851      -0.085400
     21 C18         -0.7870     0.4800     2.0190 c5         1 851       0.084400
     22 C22         -1.6350     0.6810     0.8060 cc         1 851       0.402200
     23 N26         -2.7270     0.0510     0.5810 nd         1 851      -0.522100
     24 C25         -3.3480     0.5070    -0.5590 ca         1 851       0.105400
     25 C30         -4.5610     0.0230    -1.0720 cp         1 851       0.027000
     26 C29         -5.0500     0.6290    -2.2230 ca         1 851      -0.107000
     27 C28         -4.3690     1.6670    -2.8610 ca         1 851      -0.099000
     28 C27         -3.1680     2.1430    -2.3670 ca         1 851      -0.075000
     29 C24         -2.6740     1.5540    -1.2100 ca         1 851      -0.179000
     30 S23         -1.2220     1.9310    -0.3430 ss         1 851       0.020800
     31 C31         -5.3070    -1.0720    -0.4210 cp         1 851      -0.038000
     32 C36         -6.6900    -0.9700    -0.2580 ca         1 851      -0.084000
     33 C35         -7.4150    -1.9990     0.3250 ca         1 851      -0.117500
     34 C34         -6.7700    -3.1520     0.7520 ca         1 851      -0.104000
     35 C33         -5.3940    -3.2650     0.5920 ca         1 851      -0.117500
     36 C32         -4.6680    -2.2340     0.0140 ca         1 851      -0.084000
     37 H8           3.2520     0.4050     1.5720 h1         1 851       0.091700
     38 H9           2.2810     2.2840     0.2480 hc         1 851       0.051700
     39 H14          4.6820     2.1530     0.7820 hc         1 851       0.047950
     40 H14A         4.9800     1.2400    -0.6870 hc         1 851       0.047950
     41 H13          3.9030     4.0920    -0.5350 hc         1 851       0.038950
     42 H13A         5.5110     3.6210    -1.0520 hc         1 851       0.038950
     43 H12          4.0060     4.0800    -3.0030 hc         1 851       0.038700
     44 H12A         4.5800     2.4240    -3.0010 hc         1 851       0.038700
     45 H11          1.8470     3.3820    -2.0310 hc         1 851       0.038950
     46 H11A         2.1630     2.4580    -3.4860 hc         1 851       0.038950
     47 H10          2.9510     0.5400    -2.1580 hc         1 851       0.047950
     48 H10A         1.3310     1.0030    -1.6600 hc         1 851       0.047950
     49 HN7          2.8490    -1.4000    -0.7000 hn         1 851       0.332500
     50 H3           4.5650    -2.6770    -1.3080 h1         1 851       0.024700
     51 H4           4.3500    -3.9920     1.4460 hc         1 851       0.047700
     52 H4A          3.0410    -3.7750     0.2740 hc         1 851       0.047700
     53 H4B          4.3680    -4.8640    -0.0890 hc         1 851       0.047700
     54 HN2          6.8040    -2.1100    -0.3530 hn         1 851       0.422000
     55 H1           6.5060    -3.8300    -2.1180 h1         1 851       0.030033
     56 H1A          7.9010    -4.0010    -1.0420 h1         1 851       0.030033
     57 H1B          6.4690    -4.9810    -0.7810 h1         1 851       0.030033
     58 H21          2.2080     1.3580     3.0080 h1         1 851       0.055200
     59 H21A         1.3010     2.6630     2.2390 h1         1 851       0.055200
     60 H20          0.4160     0.8390     4.5130 hc         1 851       0.060700
     61 H20A         0.2630     2.5950     4.4210 hc         1 851       0.060700
     62 H19         -1.9090     1.1140     3.7780 hc         1 851       0.065200
     63 H19A        -1.4510     2.4340     2.7020 hc         1 851       0.065200
     64 H18         -0.9500    -0.5430     2.3690 h1         1 851       0.094700
     65 H29         -5.9780     0.2740    -2.6530 ha         1 851       0.120000
     66 H28         -4.7850     2.1000    -3.7600 ha         1 851       0.116000
     67 H27         -2.6370     2.9450    -2.8630 ha         1 851       0.124000
     68 H36         -7.2020    -0.0700    -0.5750 ha         1 851       0.119500
     69 H35         -8.4860    -1.8970     0.4490 ha         1 851       0.112000
     70 H34         -7.3330    -3.9570     1.2050 ha         1 851       0.111000
     71 H33         -4.8830    -4.1610     0.9180 ha         1 851       0.112000
     72 H32         -3.5990    -2.3420    -0.1120 ha         1 851       0.119500
@<TRIPOS>BOND
     1     1     2 2   
     2     2     3 1   
     3     2    17 1   
     4     3     4 1   
     5     3    10 1   
     6     3    37 1   
     7     4     5 1   
     8     4     9 1   
     9     4    38 1   
    10     5     6 1   
    11     5    39 1   
    12     5    40 1   
    13     6     7 1   
    14     6    41 1   
    15     6    42 1   
    16     7     8 1   
    17     7    43 1   
    18     7    44 1   
    19     8     9 1   
    20     8    45 1   
    21     8    46 1   
    22     9    47 1   
    23     9    48 1   
    24    10    11 1   
    25    10    49 1   
    26    11    12 2   
    27    11    13 1   
    28    13    14 1   
    29    13    15 1   
    30    13    50 1   
    31    14    51 1   
    32    14    52 1   
    33    14    53 1   
    34    15    16 1   
    35    15    54 1   
    36    16    55 1   
    37    16    56 1   
    38    16    57 1   
    39    17    18 1   
    40    17    21 1   
    41    18    19 1   
    42    18    58 1   
    43    18    59 1   
    44    19    20 1   
    45    19    60 1   
    46    19    61 1   
    47    20    21 1   
    48    20    62 1   
    49    20    63 1   
    50    21    22 1   
    51    21    64 1   
    52    22    23 2   
    53    22    30 1   
    54    23    24 1   
    55    24    25 ar  
    56    24    29 ar  
    57    25    26 ar  
    58    25    31 1   
    59    26    27 ar  
    60    26    65 1   
    61    27    28 ar  
    62    27    66 1   
    63    28    29 ar  
    64    28    67 1   
    65    29    30 1   
    66    31    32 ar  
    67    31    36 ar  
    68    32    33 ar  
    69    32    68 1   
    70    33    34 ar  
    71    33    69 1   
    72    34    35 ar  
    73    34    70 1   
    74    35    36 ar  
    75    35    71 1   
    76    36    72 1   
@<TRIPOS>SUBSTRUCTURE
     1 851         1 TEMP              0 ****  ****    0 ROOT
