@<TRIPOS>MOLECULE
851
   72    76     1     0     0
SMALL
No Charge or Current Charge


@<TRIPOS>ATOM
      1 O16          0.6180    -1.0810     0.6420 o          1 851      -0.595100
      2 C15          1.2120    -0.1420     1.1590 c          1 851       0.592100
      3 C8           2.7250     0.1210     0.8690 c3         1 851       0.040700
      4 C9           2.9560     1.4040    -0.0040 c6         1 851      -0.067700
      5 C14          4.4330     1.8900     0.0160 c6         1 851      -0.073400
      6 C13          4.6020     3.2040    -0.7870 c6         1 851      -0.073400
      7 C12          4.0980     3.0420    -2.2420 c6         1 851      -0.075400
      8 C11          2.6320     2.5460    -2.2760 c6         1 851      -0.073400
      9 C10          2.4680     1.2310    -1.4740 c6         1 851      -0.073400
     10 N7           3.3470    -1.0850     0.2700 ns         1 851      -0.497900
     11 C5           4.6010    -1.5750     0.5740 c          1 851       0.595100
     12 O6           5.3210    -1.0380     1.4090 o          1 851      -0.590100
     13 C3           5.0170    -2.8640    -0.2260 c3         1 851       0.101500
     14 C4           5.3450    -4.0210     0.7490 c3         1 851      -0.088100
     15 N2           6.1540    -2.6310    -1.1790 n7         1 851      -0.843400
     16 C1           6.4110    -3.6960    -2.1710 c3         1 851       0.144100
     17 N17          0.5080     0.7740     1.9740 n          1 851      -0.419800
     18 C21          1.1640     1.6380     2.9830 c5         1 851       0.103000
     19 C20          0.0040     1.9170     3.9720 c5         1 851      -0.097400
     20 C19         -1.2150     1.9770     3.0230 c5         1 851      -0.085400
     21 C18         -0.9720     0.7280     2.1280 c5         1 851       0.084400
     22 C22         -1.7820     0.8240     0.8430 cc         1 851       0.402200
     23 N26         -2.9150     0.1340     0.6520 nd         1 851      -0.522100
     24 C25         -3.4350     0.4350    -0.6100 ca         1 851       0.105400
     25 C30         -4.6230    -0.0770    -1.2150 cp         1 851       0.027000
     26 C29         -4.9840     0.3910    -2.5060 ca         1 851      -0.107000
     27 C28         -4.1960     1.3310    -3.1920 ca         1 851      -0.099000
     28 C27         -3.0290     1.8240    -2.5930 ca         1 851      -0.075000
     29 C24         -2.6770     1.3650    -1.3160 ca         1 851      -0.179000
     30 S23         -1.2540     1.9130    -0.4520 ss         1 851       0.020800
     31 C31         -5.4930    -1.0820    -0.5230 cp         1 851      -0.038000
     32 C36         -6.9040    -0.9410    -0.5270 ca         1 851      -0.084000
     33 C35         -7.7290    -1.8840     0.1090 ca         1 851      -0.117500
     34 C34         -7.1610    -2.9920     0.7600 ca         1 851      -0.104000
     35 C33         -5.7660    -3.1550     0.7710 ca         1 851      -0.117500
     36 C32         -4.9420    -2.2110     0.1340 ca         1 851      -0.084000
     37 H8           3.1940     0.2930     1.8460 h1         1 851       0.091700
     38 H9           2.3510     2.1990     0.4510 hc         1 851       0.051700
     39 H14          4.7640     2.0470     1.0510 hc         1 851       0.047950
     40 H14A         5.0900     1.1200    -0.4100 hc         1 851       0.047950
     41 H13          4.0500     4.0140    -0.2920 hc         1 851       0.038950
     42 H13A         5.6590     3.5040    -0.7910 hc         1 851       0.038950
     43 H12          4.1800     4.0000    -2.7740 hc         1 851       0.038700
     44 H12A         4.7410     2.3310    -2.7790 hc         1 851       0.038700
     45 H11          1.9680     3.3180    -1.8610 hc         1 851       0.038950
     46 H11A         2.3150     2.3890    -3.3170 hc         1 851       0.038950
     47 H10          3.0360     0.4330    -1.9720 hc         1 851       0.047950
     48 H10A         1.4150     0.9200    -1.4950 hc         1 851       0.047950
     49 HN7          2.8010    -1.6150    -0.4010 hn         1 851       0.332500
     50 H3           4.1320    -3.1670    -0.8030 h1         1 851       0.024700
     51 H4           6.2620    -3.8090     1.3130 hc         1 851       0.047700
     52 H4A          4.5270    -4.1570     1.4660 hc         1 851       0.047700
     53 H4B          5.4770    -4.9690     0.2150 hc         1 851       0.047700
     54 HN2          5.9600    -1.7660    -1.7020 hn         1 851       0.422000
     55 H1           5.5200    -3.8830    -2.7860 h1         1 851       0.030033
     56 H1A          7.2300    -3.4050    -2.8420 h1         1 851       0.030033
     57 H1B          6.6990    -4.6370    -1.6840 h1         1 851       0.030033
     58 H21          2.0070     1.1440     3.4850 h1         1 851       0.055200
     59 H21A         1.5250     2.5690     2.5270 h1         1 851       0.055200
     60 H20         -0.0990     1.1010     4.6980 hc         1 851       0.060700
     61 H20A         0.1510     2.8430     4.5390 hc         1 851       0.060700
     62 H19         -2.1720     1.9290     3.5560 hc         1 851       0.065200
     63 H19A        -1.2120     2.9060     2.4400 hc         1 851       0.065200
     64 H18         -1.2580    -0.1880     2.6620 h1         1 851       0.094700
     65 H29         -5.8820     0.0080    -2.9850 ha         1 851       0.120000
     66 H28         -4.4880     1.6730    -4.1820 ha         1 851       0.116000
     67 H27         -2.4090     2.5530    -3.1120 ha         1 851       0.124000
     68 H36         -7.3600    -0.0860    -1.0200 ha         1 851       0.119500
     69 H35         -8.8090    -1.7560     0.0990 ha         1 851       0.112000
     70 H34         -7.7990    -3.7220     1.2520 ha         1 851       0.111000
     71 H33         -5.3230    -4.0150     1.2690 ha         1 851       0.112000
     72 H32         -3.8650    -2.3600     0.1410 ha         1 851       0.119500
@<TRIPOS>BOND
     1     1     2 2   
     2     2     3 1   
     3     2    17 1   
     4     3     4 1   
     5     3    10 1   
     6     3    37 1   
     7     4     5 1   
     8     4     9 1   
     9     4    38 1   
    10     5     6 1   
    11     5    39 1   
    12     5    40 1   
    13     6     7 1   
    14     6    41 1   
    15     6    42 1   
    16     7     8 1   
    17     7    43 1   
    18     7    44 1   
    19     8     9 1   
    20     8    45 1   
    21     8    46 1   
    22     9    47 1   
    23     9    48 1   
    24    10    11 1   
    25    10    49 1   
    26    11    12 2   
    27    11    13 1   
    28    13    14 1   
    29    13    15 1   
    30    13    50 1   
    31    14    51 1   
    32    14    52 1   
    33    14    53 1   
    34    15    16 1   
    35    15    54 1   
    36    16    55 1   
    37    16    56 1   
    38    16    57 1   
    39    17    18 1   
    40    17    21 1   
    41    18    19 1   
    42    18    58 1   
    43    18    59 1   
    44    19    20 1   
    45    19    60 1   
    46    19    61 1   
    47    20    21 1   
    48    20    62 1   
    49    20    63 1   
    50    21    22 1   
    51    21    64 1   
    52    22    23 2   
    53    22    30 1   
    54    23    24 1   
    55    24    25 ar  
    56    24    29 ar  
    57    25    26 ar  
    58    25    31 1   
    59    26    27 ar  
    60    26    65 1   
    61    27    28 ar  
    62    27    66 1   
    63    28    29 ar  
    64    28    67 1   
    65    29    30 1   
    66    31    32 ar  
    67    31    36 ar  
    68    32    33 ar  
    69    32    68 1   
    70    33    34 ar  
    71    33    69 1   
    72    34    35 ar  
    73    34    70 1   
    74    35    36 ar  
    75    35    71 1   
    76    36    72 1   
@<TRIPOS>SUBSTRUCTURE
     1 851         1 TEMP              0 ****  ****    0 ROOT
