@<TRIPOS>MOLECULE
852
   78    81     1     0     0
SMALL
abcg2


@<TRIPOS>ATOM
      1 C1          19.3390    26.0500    20.0580 ca         1 852      -0.175300
      2 C2          18.0520    25.7730    19.5960 ca         1 852      -0.142000
      3 C3          17.3670    26.6990    18.8220 ca         1 852      -0.088000
      4 C4          17.9330    27.9310    18.4800 ca         1 852       0.065700
      5 C5          19.2330    28.2050    18.9270 ca         1 852      -0.114600
      6 C6          19.9150    27.2670    19.7050 ca         1 852      -0.111000
      7 C7          20.0370    25.1100    21.0010 c3         1 852      -0.008100
      8 C8          19.6630    25.4120    22.4770 c3         1 852       0.035700
      9 C9          20.3540    24.4030    23.3900 c          1 852       0.594100
     10 N10         19.6430    23.2930    23.6470 ns         1 852      -0.493900
     11 O11         21.4870    24.5990    23.8280 o          1 852      -0.640100
     12 N12         20.0420    26.7530    22.8550 ns         1 852      -0.497900
     13 C13         19.1700    27.7800    22.9480 c          1 852       0.612100
     14 O14         17.9490    27.6330    22.8750 o          1 852      -0.595100
     15 C15         19.7910    29.1440    23.1210 c3         1 852      -0.182100
     16 C16         20.1930    22.1640    24.3670 c3         1 852       0.043700
     17 C17         21.1910    21.3990    23.4790 c          1 852       0.543000
     18 N18         21.9940    20.5150    24.1060 n          1 852      -0.413800
     19 O19         21.2120    21.5820    22.2610 o          1 852      -0.541000
     20 C20         21.9040    20.2030    25.5380 c3         1 852       0.113000
     21 C21         20.6110    19.4970    25.9490 c3         1 852      -0.101400
     22 C22         22.8980    19.6740    23.3110 c3         1 852       0.143300
     23 C23         22.3850    18.2620    23.1690 ca         1 852      -0.129300
     24 C24         19.4130    20.4330    26.0950 c3         1 852      -0.069400
     25 C25         19.0600    21.2390    24.8460 c3         1 852      -0.084400
     26 C26         21.2330    17.9990    22.4250 ca         1 852      -0.098000
     27 C27         20.7280    16.7120    22.3280 ca         1 852      -0.115500
     28 C28         21.3590    15.6390    22.9710 cp         1 852      -0.056000
     29 C29         22.5150    15.9060    23.7090 ca         1 852      -0.115500
     30 C30         23.0180    17.1990    23.8060 ca         1 852      -0.098000
     31 C31         20.8160    14.2660    22.8730 cp         1 852      -0.035000
     32 C32         21.6680    13.1550    22.8260 ca         1 852      -0.112000
     33 C33         21.1560    11.8660    22.7370 ca         1 852      -0.113500
     34 C34         19.7810    11.6580    22.6930 ca         1 852      -0.154000
     35 C35         18.9220    12.7520    22.7380 ca         1 852      -0.113500
     36 C36         19.4340    14.0410    22.8260 ca         1 852      -0.112000
     37 C37         19.9340    29.5140    18.5980 c          1 852       0.719600
     38 O38         19.9910    30.3730    19.5150 o          1 852      -0.744500
     39 O39         20.4170    29.6270    17.4430 o          1 852      -0.744500
     40 C40         17.1590    28.9460    17.6720 c3         1 852      -0.246400
     41 C41         17.0340    28.6380    16.1560 c          1 852       0.746000
     42 O42         17.2130    27.4660    15.7460 o          1 852      -0.739500
     43 O43         16.7460    29.6340    15.4370 o          1 852      -0.739500
     44 C76         15.7490    29.1720    18.2960 c          1 852       0.746000
     45 O78         14.8050    28.4460    17.8950 o          1 852      -0.739500
     46 O79         15.6720    30.0610    19.1830 o          1 852      -0.739500
     47 H2          17.5790    24.8340    19.8600 ha         1 852       0.052000
     48 H3          16.3650    26.4790    18.4810 ha         1 852       0.133000
     49 H6          20.9120    27.5020    20.0610 ha         1 852       0.071000
     50 H71         19.7620    24.0760    20.7870 hc         1 852       0.031200
     51 H72         21.1220    25.1950    20.9020 hc         1 852       0.031200
     52 H8          18.5820    25.3390    22.5890 h1         1 852       0.092700
     53 H10         18.7570    23.1720    23.1820 hn         1 852       0.327500
     54 H12         21.0300    26.9480    22.9080 hn         1 852       0.312500
     55 H151        19.2020    29.7220    23.8320 hc         1 852       0.066367
     56 H152        20.8280    29.0990    23.4510 hc         1 852       0.066367
     57 H153        19.7550    29.6500    22.1530 hc         1 852       0.066367
     58 H16         20.7260    22.5620    25.2320 h1         1 852       0.076700
     59 H201        22.7540    19.5590    25.7580 h1         1 852       0.043200
     60 H202        22.0440    21.1150    26.1240 h1         1 852       0.043200
     61 H211        20.3960    18.7090    25.2230 hc         1 852       0.047200
     62 H212        20.7880    19.0070    26.9090 hc         1 852       0.047200
     63 H221        23.0020    20.1440    22.3370 h1         1 852       0.065700
     64 H222        23.8730    19.6710    23.8000 h1         1 852       0.065700
     65 H241        18.5380    19.8500    26.3890 hc         1 852       0.035200
     66 H242        19.6130    21.1340    26.9120 hc         1 852       0.035200
     67 H251        18.1970    21.8690    25.0730 hc         1 852       0.055700
     68 H252        18.7650    20.5750    24.0280 hc         1 852       0.055700
     69 H26         20.7270    18.8130    21.9200 ha         1 852       0.115000
     70 H27         19.8440    16.5340    21.7310 ha         1 852       0.104000
     71 H29         23.0150    15.1030    24.2350 ha         1 852       0.104000
     72 H30         23.9070    17.3840    24.3980 ha         1 852       0.115000
     73 H32         22.7400    13.3030    22.8410 ha         1 852       0.108000
     74 H33         21.8350    11.0230    22.6950 ha         1 852       0.096000
     75 H34         19.3830    10.6540    22.6240 ha         1 852       0.094000
     76 H35         17.8500    12.6020    22.7110 ha         1 852       0.096000
     77 H36         18.7530    14.8810    22.8800 ha         1 852       0.108000
     78 H40         17.6720    29.9020    17.7440 hc         1 852       0.082700
@<TRIPOS>BOND
     1     1     2 ar  
     2     1     6 ar  
     3     1     7 1   
     4     2     3 ar  
     5     2    47 1   
     6     3     4 ar  
     7     3    48 1   
     8     4     5 ar  
     9     4    40 1   
    10     5     6 ar  
    11     5    37 1   
    12     6    49 1   
    13     7     8 1   
    14     7    50 1   
    15     7    51 1   
    16     8     9 1   
    17     8    12 1   
    18     8    52 1   
    19     9    10 1   
    20     9    11 2   
    21    10    16 1   
    22    10    53 1   
    23    12    13 1   
    24    12    54 1   
    25    13    14 2   
    26    13    15 1   
    27    15    55 1   
    28    15    56 1   
    29    15    57 1   
    30    16    17 1   
    31    16    25 1   
    32    16    58 1   
    33    17    18 1   
    34    17    19 2   
    35    18    20 1   
    36    18    22 1   
    37    20    21 1   
    38    20    59 1   
    39    20    60 1   
    40    21    24 1   
    41    21    61 1   
    42    21    62 1   
    43    22    23 1   
    44    22    63 1   
    45    22    64 1   
    46    23    26 ar  
    47    23    30 ar  
    48    24    25 1   
    49    24    65 1   
    50    24    66 1   
    51    25    67 1   
    52    25    68 1   
    53    26    27 ar  
    54    26    69 1   
    55    27    28 ar  
    56    27    70 1   
    57    28    29 ar  
    58    28    31 1   
    59    29    30 ar  
    60    29    71 1   
    61    30    72 1   
    62    31    32 ar  
    63    31    36 ar  
    64    32    33 ar  
    65    32    73 1   
    66    33    34 ar  
    67    33    74 1   
    68    34    35 ar  
    69    34    75 1   
    70    35    36 ar  
    71    35    76 1   
    72    36    77 1   
    73    37    38 1   
    74    37    39 1   
    75    40    41 1   
    76    40    44 1   
    77    40    78 1   
    78    41    42 1   
    79    41    43 1   
    80    44    45 1   
    81    44    46 1   
@<TRIPOS>SUBSTRUCTURE
     1 852         1 TEMP              0 ****  ****    0 ROOT
