@<TRIPOS>MOLECULE
852
   78    81     1     0     0
SMALL
No Charge or Current Charge


@<TRIPOS>ATOM
      1 C1          19.5950    26.7690    20.2870 ca         1 852      -0.175300
      2 C2          18.8220    26.2390    19.2440 ca         1 852      -0.142000
      3 C3          18.1930    27.0920    18.3240 ca         1 852      -0.088000
      4 C4          18.3160    28.4980    18.4200 ca         1 852       0.065700
      5 C5          19.1010    29.0310    19.4790 ca         1 852      -0.114600
      6 C6          19.7310    28.1630    20.3950 ca         1 852      -0.111000
      7 C7          20.2730    25.8420    21.2920 c3         1 852      -0.008100
      8 C8          19.3400    25.3950    22.4490 c3         1 852       0.035700
      9 C9          20.0880    24.4630    23.4450 c          1 852       0.594100
     10 N10         20.4240    23.2220    22.9430 ns         1 852      -0.493900
     11 O11         20.3680    24.7890    24.5930 o          1 852      -0.640100
     12 N12         18.7660    26.5660    23.1560 ns         1 852      -0.497900
     13 C13         17.5150    27.0940    22.9310 c          1 852       0.612100
     14 O14         16.7020    26.5780    22.1780 o          1 852      -0.595100
     15 C15         17.2120    28.3630    23.7140 c3         1 852      -0.182100
     16 C16         21.1390    22.1630    23.6900 c3         1 852       0.043700
     17 C17         21.8180    21.1710    22.6900 c          1 852       0.543000
     18 N18         22.5310    20.0710    23.2160 n          1 852      -0.413800
     19 O19         21.6760    21.3040    21.4790 o          1 852      -0.541000
     20 C20         22.9880    20.0600    24.6200 c3         1 852       0.113000
     21 C21         21.8690    19.6590    25.5970 c3         1 852      -0.101400
     22 C22         23.0190    18.9780    22.3430 c3         1 852       0.143300
     23 C23         22.3070    17.6610    22.6190 ca         1 852      -0.129300
     24 C24         20.8900    20.8100    25.9140 c3         1 852      -0.069400
     25 C25         20.1870    21.4420    24.6880 c3         1 852      -0.084400
     26 C26         20.9750    17.4810    22.2060 ca         1 852      -0.098000
     27 C27         20.3050    16.2760    22.4760 ca         1 852      -0.115500
     28 C28         20.9470    15.2170    23.1660 cp         1 852      -0.056000
     29 C29         22.2900    15.4180    23.5750 ca         1 852      -0.115500
     30 C30         22.9610    16.6230    23.3080 ca         1 852      -0.098000
     31 C31         20.2320    13.9320    23.4560 cp         1 852      -0.035000
     32 C32         20.9210    12.6920    23.4560 ca         1 852      -0.112000
     33 C33         20.2510    11.4870    23.7280 ca         1 852      -0.113500
     34 C34         18.8750    11.4950    24.0050 ca         1 852      -0.154000
     35 C35         18.1700    12.7090    24.0110 ca         1 852      -0.113500
     36 C36         18.8420    13.9140    23.7390 ca         1 852      -0.112000
     37 C37         19.2920    30.5110    19.6660 c          1 852       0.719600
     38 O38         18.5180    31.1040    20.4050 o          1 852      -0.744500
     39 O39         20.2510    31.0430    19.1240 o          1 852      -0.744500
     40 C40         17.6110    29.4100    17.3930 c3         1 852      -0.246400
     41 C41         18.1090    29.2410    15.9660 c          1 852       0.746000
     42 O42         18.0760    28.1420    15.4330 o          1 852      -0.739500
     43 O43         18.5820    30.2240    15.4130 o          1 852      -0.739500
     44 C76         16.0950    29.3000    17.3950 c          1 852       0.746000
     45 O78         15.5590    28.2190    17.2020 o          1 852      -0.739500
     46 O79         15.4560    30.3130    17.6410 o          1 852      -0.739500
     47 H2          18.7040    25.1630    19.1440 ha         1 852       0.052000
     48 H3          17.6020    26.6490    17.5270 ha         1 852       0.133000
     49 H6          20.3270    28.5840    21.2020 ha         1 852       0.071000
     50 H71         20.6520    24.9540    20.7710 hc         1 852       0.031200
     51 H72         21.1540    26.3360    21.7200 hc         1 852       0.031200
     52 H8          18.5210    24.8010    22.0220 h1         1 852       0.092700
     53 H10         20.1860    23.0380    21.9740 hn         1 852       0.327500
     54 H12         19.3470    27.0450    23.8350 hn         1 852       0.312500
     55 H151        16.1990    28.7390    23.5310 hc         1 852       0.066367
     56 H152        17.3920    28.1790    24.7790 hc         1 852       0.066367
     57 H153        17.9710    29.1160    23.4740 hc         1 852       0.066367
     58 H16         21.9430    22.6490    24.2570 h1         1 852       0.076700
     59 H201        23.8030    19.3300    24.7180 h1         1 852       0.043200
     60 H202        23.4020    21.0390    24.8930 h1         1 852       0.043200
     61 H211        21.3200    18.7970    25.1980 hc         1 852       0.047200
     62 H212        22.3280    19.3300    26.5370 hc         1 852       0.047200
     63 H221        22.8860    19.2340    21.2840 h1         1 852       0.065700
     64 H222        24.0980    18.8540    22.4990 h1         1 852       0.065700
     65 H241        20.1220    20.4320    26.6000 hc         1 852       0.035200
     66 H242        21.4270    21.5970    26.4590 hc         1 852       0.035200
     67 H251        19.4590    22.1660    25.0740 hc         1 852       0.055700
     68 H252        19.6050    20.6790    24.1570 hc         1 852       0.055700
     69 H26         20.4560    18.2780    21.6770 ha         1 852       0.115000
     70 H27         19.2800    16.1590    22.1350 ha         1 852       0.104000
     71 H29         22.8140    14.6380    24.1210 ha         1 852       0.104000
     72 H30         23.9880    16.7510    23.6430 ha         1 852       0.115000
     73 H32         21.9840    12.6610    23.2310 ha         1 852       0.108000
     74 H33         20.7980    10.5470    23.7190 ha         1 852       0.096000
     75 H34         18.3560    10.5630    24.2150 ha         1 852       0.094000
     76 H35         17.1050    12.7180    24.2290 ha         1 852       0.096000
     77 H36         18.2790    14.8430    23.7620 ha         1 852       0.108000
     78 H40         17.8120    30.4560    17.6360 hc         1 852       0.082700
@<TRIPOS>BOND
     1     1     2 ar  
     2     1     6 ar  
     3     1     7 1   
     4     2     3 ar  
     5     2    47 1   
     6     3     4 ar  
     7     3    48 1   
     8     4     5 ar  
     9     4    40 1   
    10     5     6 ar  
    11     5    37 1   
    12     6    49 1   
    13     7     8 1   
    14     7    50 1   
    15     7    51 1   
    16     8     9 1   
    17     8    12 1   
    18     8    52 1   
    19     9    10 1   
    20     9    11 2   
    21    10    16 1   
    22    10    53 1   
    23    12    13 1   
    24    12    54 1   
    25    13    14 2   
    26    13    15 1   
    27    15    55 1   
    28    15    56 1   
    29    15    57 1   
    30    16    17 1   
    31    16    25 1   
    32    16    58 1   
    33    17    18 1   
    34    17    19 2   
    35    18    20 1   
    36    18    22 1   
    37    20    21 1   
    38    20    59 1   
    39    20    60 1   
    40    21    24 1   
    41    21    61 1   
    42    21    62 1   
    43    22    23 1   
    44    22    63 1   
    45    22    64 1   
    46    23    26 ar  
    47    23    30 ar  
    48    24    25 1   
    49    24    65 1   
    50    24    66 1   
    51    25    67 1   
    52    25    68 1   
    53    26    27 ar  
    54    26    69 1   
    55    27    28 ar  
    56    27    70 1   
    57    28    29 ar  
    58    28    31 1   
    59    29    30 ar  
    60    29    71 1   
    61    30    72 1   
    62    31    32 ar  
    63    31    36 ar  
    64    32    33 ar  
    65    32    73 1   
    66    33    34 ar  
    67    33    74 1   
    68    34    35 ar  
    69    34    75 1   
    70    35    36 ar  
    71    35    76 1   
    72    36    77 1   
    73    37    38 1   
    74    37    39 1   
    75    40    41 1   
    76    40    44 1   
    77    40    78 1   
    78    41    42 1   
    79    41    43 1   
    80    44    45 1   
    81    44    46 1   
@<TRIPOS>SUBSTRUCTURE
     1 852         1 TEMP              0 ****  ****    0 ROOT
