@<TRIPOS>MOLECULE
853
   76    79     1     0     0
SMALL
abcg2


@<TRIPOS>ATOM
      1 C1          19.0990    25.5810    19.4070 ca         1 853      -0.165300
      2 C2          17.7870    25.2230    19.0980 ca         1 853      -0.137000
      3 C3          17.0470    25.9860    18.2060 ca         1 853      -0.141000
      4 C4          17.5780    27.1180    17.5830 ca         1 853       0.036700
      5 C5          18.9000    27.4780    17.8840 ca         1 853      -0.096600
      6 C6          19.6310    26.7100    18.7920 ca         1 853      -0.095000
      7 C10         19.8890    24.8060    20.4290 c3         1 853      -0.014100
      8 C11         19.4770    25.1710    21.8700 c3         1 853       0.048700
      9 C14         20.2370    24.2760    22.8570 c          1 853       0.591100
     10 N15         19.5880    23.1520    23.2070 ns         1 853      -0.489900
     11 O16         21.3600    24.5610    23.2640 o          1 853      -0.623100
     12 N17         19.7290    26.5710    22.1230 ns         1 853      -0.462900
     13 C18         19.1300    27.2490    23.1220 c          1 853       0.609100
     14 O19         18.3250    26.7140    23.8880 o          1 853      -0.662100
     15 C20         19.4960    28.7080    23.2450 c3         1 853      -0.168100
     16 C24         20.2050    22.1070    23.9920 c3         1 853       0.045700
     17 C25         21.1470    21.2660    23.1110 c          1 853       0.542000
     18 N26         21.9930    20.4360    23.7550 n          1 853      -0.412800
     19 O27         21.0870    21.3410    21.8830 o          1 853      -0.553000
     20 C28         22.0190    20.2650    25.2140 c3         1 853       0.110000
     21 C29         20.7680    19.6070    25.7960 c3         1 853      -0.100400
     22 C32         22.8390    19.5260    22.9770 c3         1 853       0.137300
     23 C33         22.3100    18.1120    22.9740 ca         1 853      -0.096300
     24 C36         19.5760    20.5510    25.9350 c3         1 853      -0.071400
     25 C39         19.1230    21.2240    24.6410 c3         1 853      -0.084400
     26 C46         21.0620    17.8240    22.4180 ca         1 853      -0.099500
     27 C47         20.5540    16.5360    22.4450 ca         1 853      -0.103500
     28 C48         21.2760    15.4850    23.0280 cp         1 853      -0.045000
     29 C49         22.5270    15.7780    23.5770 ca         1 853      -0.103500
     30 C50         23.0330    17.0730    23.5520 ca         1 853      -0.099500
     31 C55         20.7270    14.1110    23.0620 cp         1 853      -0.023000
     32 C56         19.3550    13.8920    23.2400 ca         1 853      -0.101500
     33 C57         18.8370    12.6030    23.2720 ca         1 853      -0.113500
     34 C58         19.6780    11.5040    23.1260 ca         1 853      -0.115000
     35 C59         21.0430    11.7080    22.9480 ca         1 853      -0.113500
     36 C60         21.5620    12.9970    22.9170 ca         1 853      -0.101500
     37 C68         19.5840    28.6930    17.2710 c          1 853       0.723600
     38 O69         20.0560    29.5350    18.0780 o          1 853      -0.734500
     39 O70         19.6490    28.7500    16.0170 o          1 853      -0.734500
     40 C71         16.7100    27.9330    16.6680 c3         1 853      -0.178100
     41 C72         16.0340    29.1830    17.2970 c          1 853       0.727000
     42 O75         15.3570    29.8810    16.4970 o          1 853      -0.747500
     43 O76         16.1910    29.4050    18.5220 o          1 853      -0.747500
     44 H2          17.3430    24.3480    19.5610 ha         1 853       0.060000
     45 H3          16.0250    25.6990    17.9830 ha         1 853       0.083000
     46 H6          20.6460    27.0120    19.0290 ha         1 853       0.091000
     47 H101        19.7340    23.7340    20.3010 hc         1 853       0.042700
     48 H102        20.9580    25.0000    20.3140 hc         1 853       0.042700
     49 H11         18.4070    24.9940    21.9880 h1         1 853       0.079700
     50 H15         18.7000    22.9530    22.7720 hn         1 853       0.323500
     51 H17         20.4130    27.0460    21.5560 hn         1 853       0.342500
     52 H201        19.9490    28.8750    24.2230 hc         1 853       0.060367
     53 H202        20.1840    29.0390    22.4680 hc         1 853       0.060367
     54 H203        18.5820    29.3020    23.1940 hc         1 853       0.060367
     55 H24         20.7920    22.5950    24.7710 h1         1 853       0.086700
     56 H281        22.8870    19.6450    25.4260 h1         1 853       0.047700
     57 H282        22.2010    21.2300    25.6930 h1         1 853       0.047700
     58 H291        20.5040    18.7450    25.1790 hc         1 853       0.046200
     59 H292        21.0250    19.2220    26.7870 hc         1 853       0.046200
     60 H321        22.8890    19.9180    21.9640 h1         1 853       0.071200
     61 H322        23.8420    19.5470    23.4040 h1         1 853       0.071200
     62 H361        18.7310    20.0000    26.3540 hc         1 853       0.041200
     63 H362        19.8310    21.3330    26.6590 hc         1 853       0.041200
     64 H391        18.2690    21.8670    24.8650 hc         1 853       0.055700
     65 H392        18.7810    20.4780    23.9180 hc         1 853       0.055700
     66 H46         20.4840    18.6180    21.9620 ha         1 853       0.123000
     67 H47         19.5910    16.3360    21.9930 ha         1 853       0.111500
     68 H49         23.1020    14.9930    24.0530 ha         1 853       0.111500
     69 H50         23.9970    17.2790    24.0020 ha         1 853       0.123000
     70 H56         18.6920    14.7360    23.3740 ha         1 853       0.115500
     71 H57         17.7730    12.4570    23.4190 ha         1 853       0.108500
     72 H58         19.2740    10.5000    23.1500 ha         1 853       0.107000
     73 H59         21.7070    10.8610    22.8250 ha         1 853       0.108500
     74 H60         22.6230    13.1410    22.7590 ha         1 853       0.115500
     75 H711        17.2880    28.2840    15.8130 hc         1 853       0.041200
     76 H712        15.9020    27.3110    16.2750 hc         1 853       0.041200
@<TRIPOS>BOND
     1     1     2 ar  
     2     1     6 ar  
     3     1     7 1   
     4     2     3 ar  
     5     2    44 1   
     6     3     4 ar  
     7     3    45 1   
     8     4     5 ar  
     9     4    40 1   
    10     5     6 ar  
    11     5    37 1   
    12     6    46 1   
    13     7     8 1   
    14     7    47 1   
    15     7    48 1   
    16     8     9 1   
    17     8    12 1   
    18     8    49 1   
    19     9    10 1   
    20     9    11 2   
    21    10    16 1   
    22    10    50 1   
    23    12    13 1   
    24    12    51 1   
    25    13    14 2   
    26    13    15 1   
    27    15    52 1   
    28    15    53 1   
    29    15    54 1   
    30    16    17 1   
    31    16    25 1   
    32    16    55 1   
    33    17    18 1   
    34    17    19 2   
    35    18    20 1   
    36    18    22 1   
    37    20    21 1   
    38    20    56 1   
    39    20    57 1   
    40    21    24 1   
    41    21    58 1   
    42    21    59 1   
    43    22    23 1   
    44    22    60 1   
    45    22    61 1   
    46    23    26 ar  
    47    23    30 ar  
    48    24    25 1   
    49    24    62 1   
    50    24    63 1   
    51    25    64 1   
    52    25    65 1   
    53    26    27 ar  
    54    26    66 1   
    55    27    28 ar  
    56    27    67 1   
    57    28    29 ar  
    58    28    31 1   
    59    29    30 ar  
    60    29    68 1   
    61    30    69 1   
    62    31    32 ar  
    63    31    36 ar  
    64    32    33 ar  
    65    32    70 1   
    66    33    34 ar  
    67    33    71 1   
    68    34    35 ar  
    69    34    72 1   
    70    35    36 ar  
    71    35    73 1   
    72    36    74 1   
    73    37    38 1   
    74    37    39 1   
    75    40    41 1   
    76    40    75 1   
    77    40    76 1   
    78    41    42 1   
    79    41    43 1   
@<TRIPOS>SUBSTRUCTURE
     1 853         1 TEMP              0 ****  ****    0 ROOT
