@<TRIPOS>MOLECULE
853
   76    79     1     0     0
SMALL
No Charge or Current Charge


@<TRIPOS>ATOM
      1 C1          19.4030    26.2690    19.5850 ca         1 853      -0.165300
      2 C2          18.5790    25.6380    18.6400 ca         1 853      -0.137000
      3 C3          17.8850    26.4000    17.6890 ca         1 853      -0.141000
      4 C4          17.9960    27.8070    17.6590 ca         1 853       0.036700
      5 C5          18.8350    28.4480    18.6100 ca         1 853      -0.096600
      6 C6          19.5250    27.6700    19.5640 ca         1 853      -0.095000
      7 C10         20.1560    25.4410    20.6240 c3         1 853      -0.014100
      8 C11         19.3020    25.0870    21.8700 c3         1 853       0.048700
      9 C14         20.1300    24.2720    22.9030 c          1 853       0.591100
     10 N15         20.4570    22.9900    22.5110 ns         1 853      -0.489900
     11 O16         20.4770    24.7190    23.9910 o          1 853      -0.623100
     12 N17         18.7440    26.3070    22.5000 ns         1 853      -0.462900
     13 C18         17.4550    26.7620    22.3460 c          1 853       0.609100
     14 O19         16.6000    26.1380    21.7340 o          1 853      -0.662100
     15 C20         17.1670    28.0960    23.0220 c3         1 853      -0.168100
     16 C24         21.2400    22.0240    23.3140 c3         1 853       0.045700
     17 C25         21.8720    20.9430    22.3790 c          1 853       0.542000
     18 N26         22.6460    19.9170    22.9660 n          1 853      -0.412800
     19 O27         21.6430    20.9420    21.1740 o          1 853      -0.553000
     20 C28         23.1880    20.0540    24.3330 c3         1 853       0.110000
     21 C29         22.1380    19.7370    25.4120 c3         1 853      -0.100400
     22 C32         23.0910    18.7420    22.1790 c3         1 853       0.137300
     23 C33         22.3230    17.4810    22.5480 ca         1 853      -0.096300
     24 C36         21.1590    20.9020    25.6760 c3         1 853      -0.071400
     25 C39         20.3680    21.3980    24.4420 c3         1 853      -0.084400
     26 C46         21.0050    17.3000    22.0930 ca         1 853      -0.099500
     27 C47         20.2830    16.1480    22.4480 ca         1 853      -0.103500
     28 C48         20.8590    15.1450    23.2680 cp         1 853      -0.045000
     29 C49         22.1880    15.3460    23.7190 ca         1 853      -0.103500
     30 C50         22.9100    16.4990    23.3650 ca         1 853      -0.099500
     31 C55         20.0890    13.9170    23.6480 cp         1 853      -0.023000
     32 C56         18.6890    13.9700    23.8740 ca         1 853      -0.101500
     33 C57         17.9670    12.8180    24.2310 ca         1 853      -0.113500
     34 C58         18.6280    11.5880    24.3700 ca         1 853      -0.115000
     35 C59         20.0130    11.5100    24.1520 ca         1 853      -0.113500
     36 C60         20.7350    12.6630    23.7960 ca         1 853      -0.101500
     37 C68         19.0250    29.9450    18.6420 c          1 853       0.723600
     38 O69         18.6330    30.5530    19.6280 o          1 853      -0.734500
     39 O70         19.6920    30.4630    17.7560 o          1 853      -0.734500
     40 C71         17.1950    28.5700    16.5970 c3         1 853      -0.178100
     41 C72         15.7440    28.7470    17.0670 c          1 853       0.727000
     42 O75         15.4700    29.7290    17.7400 o          1 853      -0.747500
     43 O76         14.9450    27.8530    16.8280 o          1 853      -0.747500
     44 H2          18.4720    24.5560    18.6440 ha         1 853       0.060000
     45 H3          17.2480    25.8930    16.9690 ha         1 853       0.083000
     46 H6          20.1640    28.1660    20.2910 ha         1 853       0.091000
     47 H101        20.5180    24.5160    20.1600 hc         1 853       0.042700
     48 H102        21.0530    25.9810    20.9520 hc         1 853       0.042700
     49 H11         18.4740    24.4410    21.5510 h1         1 853       0.079700
     50 H15         20.1580    22.7000    21.5850 hn         1 853       0.323500
     51 H17         19.3610    26.8750    23.0700 hn         1 853       0.342500
     52 H201        17.4510    28.0340    24.0780 hc         1 853       0.060367
     53 H202        17.8660    28.8470    22.6350 hc         1 853       0.060367
     54 H203        16.1250    28.4150    22.9000 hc         1 853       0.060367
     55 H24         22.0690    22.5760    23.7740 h1         1 853       0.086700
     56 H281        24.0220    19.3500    24.4530 h1         1 853       0.047700
     57 H282        23.5980    21.0620    24.4800 h1         1 853       0.047700
     58 H291        21.5820    18.8330    25.1340 hc         1 853       0.046200
     59 H292        22.6600    19.5080    26.3490 hc         1 853       0.046200
     60 H321        22.9740    18.9280    21.1030 h1         1 853       0.071200
     61 H322        24.1640    18.5820    22.3480 h1         1 853       0.071200
     62 H361        20.4440    20.5850    26.4450 hc         1 853       0.041200
     63 H362        21.7150    21.7460    26.1040 hc         1 853       0.041200
     64 H391        19.6540    22.1490    24.7990 hc         1 853       0.055700
     65 H392        19.7670    20.5780    24.0290 hc         1 853       0.055700
     66 H46         20.5380    18.0560    21.4640 ha         1 853       0.123000
     67 H47         19.2710    16.0280    22.0720 ha         1 853       0.111500
     68 H49         22.6610    14.6090    24.3630 ha         1 853       0.111500
     69 H50         23.9250    16.6300    23.7350 ha         1 853       0.123000
     70 H56         18.1600    14.9150    23.7850 ha         1 853       0.115500
     71 H57         16.8940    12.8810    24.4030 ha         1 853       0.108500
     72 H58         18.0690    10.6960    24.6470 ha         1 853       0.107000
     73 H59         20.5270    10.5570    24.2560 ha         1 853       0.108500
     74 H60         21.8040    12.5780    23.6180 ha         1 853       0.115500
     75 H711        17.6540    29.5510    16.4450 hc         1 853       0.041200
     76 H712        17.2160    27.9580    15.6880 hc         1 853       0.041200
@<TRIPOS>BOND
     1     1     2 ar  
     2     1     6 ar  
     3     1     7 1   
     4     2     3 ar  
     5     2    44 1   
     6     3     4 ar  
     7     3    45 1   
     8     4     5 ar  
     9     4    40 1   
    10     5     6 ar  
    11     5    37 1   
    12     6    46 1   
    13     7     8 1   
    14     7    47 1   
    15     7    48 1   
    16     8     9 1   
    17     8    12 1   
    18     8    49 1   
    19     9    10 1   
    20     9    11 2   
    21    10    16 1   
    22    10    50 1   
    23    12    13 1   
    24    12    51 1   
    25    13    14 2   
    26    13    15 1   
    27    15    52 1   
    28    15    53 1   
    29    15    54 1   
    30    16    17 1   
    31    16    25 1   
    32    16    55 1   
    33    17    18 1   
    34    17    19 2   
    35    18    20 1   
    36    18    22 1   
    37    20    21 1   
    38    20    56 1   
    39    20    57 1   
    40    21    24 1   
    41    21    58 1   
    42    21    59 1   
    43    22    23 1   
    44    22    60 1   
    45    22    61 1   
    46    23    26 ar  
    47    23    30 ar  
    48    24    25 1   
    49    24    62 1   
    50    24    63 1   
    51    25    64 1   
    52    25    65 1   
    53    26    27 ar  
    54    26    66 1   
    55    27    28 ar  
    56    27    67 1   
    57    28    29 ar  
    58    28    31 1   
    59    29    30 ar  
    60    29    68 1   
    61    30    69 1   
    62    31    32 ar  
    63    31    36 ar  
    64    32    33 ar  
    65    32    70 1   
    66    33    34 ar  
    67    33    71 1   
    68    34    35 ar  
    69    34    72 1   
    70    35    36 ar  
    71    35    73 1   
    72    36    74 1   
    73    37    38 1   
    74    37    39 1   
    75    40    41 1   
    76    40    75 1   
    77    40    76 1   
    78    41    42 1   
    79    41    43 1   
@<TRIPOS>SUBSTRUCTURE
     1 853         1 TEMP              0 ****  ****    0 ROOT
