@<TRIPOS>MOLECULE
854
   42    43     1     0     0
SMALL
No Charge or Current Charge


@<TRIPOS>ATOM
      1 O3          21.6190     6.3210    72.3080 o          1 854      -0.539000
      2 S           22.0040     5.8160    73.6300 s6         1 854       1.239100
      3 O2          21.0920     4.9180    74.3480 o          1 854      -0.539000
      4 N           23.4770     4.9370    73.4000 n3         1 854      -0.786500
      5 C7          24.7270     5.7350    73.3410 c6         1 854       0.223800
      6 C6          25.8530     4.9420    72.6330 c6         1 854      -0.083400
      7 C5          26.0710     3.5530    73.2770 c6         1 854      -0.076400
      8 C4          24.7250     2.7910    73.3720 c6         1 854      -0.069400
      9 C3          23.6470     3.6240    74.1330 c6         1 854       0.184500
     10 C2          23.9000     3.6980    75.6910 c          1 854       0.567100
     11 O1          23.2660     4.4350    76.4370 o          1 854      -0.479000
     12 O           24.8260     2.7980    76.1660 os         1 854      -0.467100
     13 C1          25.1050     2.7810    77.5760 c3         1 854       0.164600
     14 C           26.1790     1.7090    77.8160 c3         1 854      -0.100100
     15 C8          22.4130     7.1940    74.7290 c3         1 854      -0.267100
     16 C9          21.2090     8.0110    75.1780 ca         1 854      -0.072300
     17 C14         20.5290     7.6750    76.3650 ca         1 854      -0.089000
     18 C13         19.4180     8.4280    76.7820 ca         1 854      -0.108500
     19 C12         18.9820     9.5220    76.0150 ca         1 854      -0.101000
     20 C11         19.6580     9.8620    74.8320 ca         1 854      -0.108500
     21 C10         20.7700     9.1090    74.4140 ca         1 854      -0.089000
     22 H1          25.0570     6.0190    74.3510 h1         1 854       0.056700
     23 H2          24.5680     6.6660    72.7760 h1         1 854       0.056700
     24 H3          26.7870     5.5190    72.6570 hc         1 854       0.054700
     25 H4          25.5910     4.8160    71.5740 hc         1 854       0.054700
     26 H5          26.7900     2.9720    72.6830 hc         1 854       0.047700
     27 H6          26.5140     3.6710    74.2750 hc         1 854       0.047700
     28 H7          24.3580     2.5830    72.3570 hc         1 854       0.067200
     29 H8          24.8690     1.8080    73.8410 hc         1 854       0.067200
     30 H9          22.7220     3.0350    74.0580 h1         1 854       0.110700
     31 H10         25.4790     3.7570    77.9140 h1         1 854       0.054200
     32 H11         24.2030     2.5340    78.1530 h1         1 854       0.054200
     33 H12         26.4310     1.6560    78.8820 hc         1 854       0.050033
     34 H13         25.8180     0.7230    77.4990 hc         1 854       0.050033
     35 H14         27.0920     1.9450    77.2570 hc         1 854       0.050033
     36 H15         22.9240     6.7640    75.5940 h1         1 854       0.096700
     37 H16         23.1160     7.8290    74.1800 h1         1 854       0.096700
     38 H17         20.8610     6.8280    76.9620 ha         1 854       0.117500
     39 H18         18.8960     8.1630    77.6990 ha         1 854       0.115500
     40 H19         18.1220    10.1050    76.3380 ha         1 854       0.114000
     41 H20         19.3220    10.7090    74.2380 ha         1 854       0.115500
     42 H21         21.2880     9.3790    73.4960 ha         1 854       0.117500
@<TRIPOS>BOND
     1     1     2 2   
     2     2     3 2   
     3     2     4 1   
     4     2    15 1   
     5     4     5 1   
     6     4     9 1   
     7     5     6 1   
     8     5    22 1   
     9     5    23 1   
    10     6     7 1   
    11     6    24 1   
    12     6    25 1   
    13     7     8 1   
    14     7    26 1   
    15     7    27 1   
    16     8     9 1   
    17     8    28 1   
    18     8    29 1   
    19     9    10 1   
    20     9    30 1   
    21    10    11 2   
    22    10    12 1   
    23    12    13 1   
    24    13    14 1   
    25    13    31 1   
    26    13    32 1   
    27    14    33 1   
    28    14    34 1   
    29    14    35 1   
    30    15    16 1   
    31    15    36 1   
    32    15    37 1   
    33    16    17 ar  
    34    16    21 ar  
    35    17    18 ar  
    36    17    38 1   
    37    18    19 ar  
    38    18    39 1   
    39    19    20 ar  
    40    19    40 1   
    41    20    21 ar  
    42    20    41 1   
    43    21    42 1   
@<TRIPOS>SUBSTRUCTURE
     1 854         1 TEMP              0 ****  ****    0 ROOT
