@<TRIPOS>MOLECULE
854
   42    43     1     0     0
SMALL
abcg2


@<TRIPOS>ATOM
      1 O3          22.8230     6.8600    72.8430 o          1 854      -0.539000
      2 S           22.5080     5.7930    73.7670 s6         1 854       1.239100
      3 O2          21.2240     5.1350    73.6510 o          1 854      -0.539000
      4 N           23.6590     4.6490    73.6130 n3         1 854      -0.786500
      5 C7          25.0700     5.0400    73.4400 c6         1 854       0.223800
      6 C6          25.7200     4.1730    72.3680 c6         1 854      -0.083400
      7 C5          25.5260     2.6880    72.6750 c6         1 854      -0.076400
      8 C4          24.0430     2.3610    72.8390 c6         1 854      -0.069400
      9 C3          23.3830     3.2450    73.9090 c6         1 854       0.184500
     10 C2          23.7820     2.7880    75.3160 c          1 854       0.567100
     11 O1          23.7280     1.6270    75.6560 o          1 854      -0.479000
     12 O           24.1500     3.7820    76.1150 os         1 854      -0.467100
     13 C1          24.5080     3.4470    77.4840 c3         1 854       0.164600
     14 C           24.8810     4.7330    78.1810 c3         1 854      -0.100100
     15 C8          22.6420     6.4660    75.4360 c3         1 854      -0.267100
     16 C9          21.7300     7.6390    75.6360 ca         1 854      -0.072300
     17 C14         20.4070     7.4470    76.0350 ca         1 854      -0.089000
     18 C13         19.5580     8.5350    76.2030 ca         1 854      -0.108500
     19 C12         20.0240     9.8260    75.9740 ca         1 854      -0.101000
     20 C11         21.3440    10.0250    75.5770 ca         1 854      -0.108500
     21 C10         22.1910     8.9360    75.4080 ca         1 854      -0.089000
     22 H1          25.5950     4.9250    74.3920 h1         1 854       0.056700
     23 H2          25.0990     6.0890    73.1590 h1         1 854       0.056700
     24 H3          26.7820     4.4220    72.3140 hc         1 854       0.054700
     25 H4          25.2740     4.4100    71.3980 hc         1 854       0.054700
     26 H5          25.9520     2.0760    71.8780 hc         1 854       0.047700
     27 H6          26.0640     2.4320    73.5950 hc         1 854       0.047700
     28 H7          23.5160     2.5390    71.8990 hc         1 854       0.067200
     29 H8          23.8960     1.3170    73.1110 hc         1 854       0.067200
     30 H9          22.3050     3.1020    73.8620 h1         1 854       0.110700
     31 H10         23.6520     2.9600    77.9500 h1         1 854       0.054200
     32 H11         25.3380     2.7400    77.4530 h1         1 854       0.054200
     33 H12         25.1690     4.5120    79.2100 hc         1 854       0.050033
     34 H13         25.7220     5.2170    77.6830 hc         1 854       0.050033
     35 H14         24.0380     5.4250    78.2010 hc         1 854       0.050033
     36 H15         22.4090     5.6350    76.0990 h1         1 854       0.096700
     37 H16         23.6900     6.7350    75.5600 h1         1 854       0.096700
     38 H17         20.0440     6.4430    76.2160 ha         1 854       0.117500
     39 H18         18.5340     8.3750    76.5160 ha         1 854       0.115500
     40 H19         19.3640    10.6740    76.1080 ha         1 854       0.114000
     41 H20         21.7140    11.0270    75.4020 ha         1 854       0.115500
     42 H21         23.2180     9.0900    75.0990 ha         1 854       0.117500
@<TRIPOS>BOND
     1     1     2 2   
     2     2     3 2   
     3     2     4 1   
     4     2    15 1   
     5     4     5 1   
     6     4     9 1   
     7     5     6 1   
     8     5    22 1   
     9     5    23 1   
    10     6     7 1   
    11     6    24 1   
    12     6    25 1   
    13     7     8 1   
    14     7    26 1   
    15     7    27 1   
    16     8     9 1   
    17     8    28 1   
    18     8    29 1   
    19     9    10 1   
    20     9    30 1   
    21    10    11 2   
    22    10    12 1   
    23    12    13 1   
    24    13    14 1   
    25    13    31 1   
    26    13    32 1   
    27    14    33 1   
    28    14    34 1   
    29    14    35 1   
    30    15    16 1   
    31    15    36 1   
    32    15    37 1   
    33    16    17 ar  
    34    16    21 ar  
    35    17    18 ar  
    36    17    38 1   
    37    18    19 ar  
    38    18    39 1   
    39    19    20 ar  
    40    19    40 1   
    41    20    21 ar  
    42    20    41 1   
    43    21    42 1   
@<TRIPOS>SUBSTRUCTURE
     1 854         1 TEMP              0 ****  ****    0 ROOT
