@<TRIPOS>MOLECULE
855
   39    42     1     0     0
SMALL
bcc


@<TRIPOS>ATOM
      1 C1           4.7340     0.6030     0.1060 c3         1 855      -0.143400
      2 C2           3.6310     1.6160     0.0710 ca         1 855       0.415600
      3 C3           3.9020     2.9840     0.0800 ca         1 855      -0.232300
      4 C4           2.8440     3.8760     0.0730 ca         1 855      -0.103000
      5 C5           1.5480     3.3870     0.0540 ca         1 855      -0.204300
      6 C6           1.3690     2.0080     0.0410 cp         1 855       0.362300
      7 N7           2.3870     1.1540     0.0510 nb         1 855      -0.646000
      8 C8           0.0030     1.4190     0.0080 cp         1 855       0.662000
      9 N9          -0.0540     0.0790    -0.0040 nb         1 855      -0.759000
     10 C10         -1.2220    -0.5020    -0.0370 ca         1 855       0.732200
     11 C12         -0.2620    -2.7950    -0.0400 ca         1 855       0.199600
     12 C17          1.1080    -2.5160    -0.0210 ca         1 855      -0.285800
     13 C16          1.9900    -3.5860    -0.0200 ca         1 855       0.417200
     14 N15          1.6390    -4.8660    -0.0350 nb         1 855      -0.682000
     15 C14          0.3330    -5.1190    -0.0520 ca         1 855       0.417200
     16 C13         -0.6410    -4.1410    -0.0560 ca         1 855      -0.285800
     17 C18         -2.4350     0.2680    -0.0640 ca         1 855      -0.299600
     18 C19         -3.7380    -0.2600    -0.1070 ca         1 855      -0.093000
     19 C20         -4.8230     0.5790    -0.1290 ca         1 855      -0.136000
     20 C21         -4.6400     1.9730    -0.1080 ca         1 855      -0.100000
     21 C22         -3.3800     2.5090    -0.0670 ca         1 855      -0.177300
     22 C23         -2.2490     1.6680    -0.0450 ca         1 855       0.447600
     23 N24         -1.0150     2.2320    -0.0080 nb         1 855      -0.731000
     24 N5          -1.2840    -1.8590    -0.0460 nu         1 855      -0.735300
     25 H1           4.9400     0.2970     1.1340 hc         1 855       0.051033
     26 H1A          4.4540    -0.2910    -0.4500 hc         1 855       0.051033
     27 H1B          5.6600     0.9980    -0.3090 hc         1 855       0.051033
     28 H3           4.9250     3.3380     0.0910 ha         1 855       0.141000
     29 H4           3.0250     4.9430     0.0790 ha         1 855       0.139000
     30 H5           0.6980     4.0530     0.0440 ha         1 855       0.163000
     31 H17          1.4840    -1.5050    -0.0060 ha         1 855       0.165500
     32 H14          0.0390    -6.1620    -0.0640 h4         1 855       0.017100
     33 H13         -1.6860    -4.4250    -0.0720 ha         1 855       0.165500
     34 H19         -3.9140    -1.3280    -0.1250 ha         1 855       0.125000
     35 H20         -5.8230     0.1680    -0.1640 ha         1 855       0.137000
     36 H21         -5.5020     2.6260    -0.1260 ha         1 855       0.138000
     37 H22         -3.2260     3.5800    -0.0520 ha         1 855       0.153000
     38 H141        -2.2060    -2.2630    -0.0650 hn         1 855       0.444800
     39 H16          3.0550    -3.3800    -0.0060 h4         1 855       0.017100
@<TRIPOS>BOND
     1     1     2 1   
     2     1    25 1   
     3     1    26 1   
     4     1    27 1   
     5     2     3 ar  
     6     2     7 ar  
     7     3     4 ar  
     8     3    28 1   
     9     4     5 ar  
    10     4    29 1   
    11     5     6 ar  
    12     5    30 1   
    13     6     7 ar  
    14     6     8 1   
    15     8     9 ar  
    16     8    23 ar  
    17     9    10 ar  
    18    10    17 ar  
    19    10    24 1   
    20    11    12 ar  
    21    11    16 ar  
    22    11    24 1   
    23    12    13 ar  
    24    12    31 1   
    25    13    14 ar  
    26    13    39 1   
    27    14    15 ar  
    28    15    16 ar  
    29    15    32 1   
    30    16    33 1   
    31    17    18 ar  
    32    17    22 ar  
    33    18    19 ar  
    34    18    34 1   
    35    19    20 ar  
    36    19    35 1   
    37    20    21 ar  
    38    20    36 1   
    39    21    22 ar  
    40    21    37 1   
    41    22    23 ar  
    42    24    38 1   
@<TRIPOS>SUBSTRUCTURE
     1 855         1 TEMP              0 ****  ****    0 ROOT
