@<TRIPOS>MOLECULE
855
   39    42     1     0     0
SMALL
No Charge or Current Charge


@<TRIPOS>ATOM
      1 C1           4.8910     0.7540     0.2890 c3         1 855      -0.143400
      2 C2           3.7460     1.7470     0.2360 ca         1 855       0.350300
      3 C3           3.9810     3.1320     0.2570 ca         1 855      -0.149000
      4 C4           2.8880     4.0100     0.2110 ca         1 855      -0.085000
      5 C5           1.5970     3.4590     0.1460 ca         1 855      -0.121000
      6 C6           1.4220     2.0470     0.1300 cp         1 855       0.297000
      7 N7           2.5030     1.2210     0.1770 nb         1 855      -0.646000
      8 C8           0.0460     1.4100     0.0570 cp         1 855       0.136000
      9 N9          -0.0370     0.0610     0.0730 nb         1 855      -0.233000
     10 C10         -1.2500    -0.5090    -0.0150 ca         1 855       0.403900
     11 C12         -0.3450    -2.9200    -0.0630 ca         1 855       0.338000
     12 C17          0.8640    -2.7570    -0.7510 ca         1 855      -0.202500
     13 C16          1.7600    -3.8300    -0.8150 ca         1 855       0.351900
     14 N15          1.5110    -5.0310    -0.2480 nb         1 855      -0.682000
     15 C14          0.3370    -5.1870     0.4020 ca         1 855       0.351900
     16 C13         -0.6130    -4.1640     0.5120 ca         1 855      -0.202500
     17 C18         -2.4220     0.2790    -0.1010 ca         1 855      -0.169000
     18 C19         -3.7200    -0.2780    -0.1890 ca         1 855      -0.075000
     19 C20         -4.8430     0.5630    -0.2730 ca         1 855      -0.118000
     20 C21         -4.6810     1.9560    -0.2710 ca         1 855      -0.082000
     21 C22         -3.3940     2.5120    -0.1880 ca         1 855      -0.094000
     22 C23         -2.2580     1.6860    -0.1030 ca         1 855       0.054000
     23 N24         -1.0260     2.2290    -0.0250 nb         1 855      -0.205000
     24 N5          -1.3000    -1.9060     0.0380 nu         1 855      -0.928900
     25 H1           5.0600     0.4120     1.3160 hc         1 855       0.051033
     26 H1A          4.6870    -0.1260    -0.3310 hc         1 855       0.051033
     27 H1B          5.8230     1.2030    -0.0730 hc         1 855       0.051033
     28 H3           4.9950     3.5170     0.3100 ha         1 855       0.123000
     29 H4           3.0350     5.0880     0.2250 ha         1 855       0.121000
     30 H5           0.7380     4.1230     0.1090 ha         1 855       0.145000
     31 H17          1.1150    -1.8280    -1.2480 ha         1 855       0.147500
     32 H14          0.1550    -6.1640     0.8480 h4         1 855       0.017100
     33 H13         -1.5390    -4.3470     1.0480 ha         1 855       0.147500
     34 H19         -3.8760    -1.3530    -0.2010 ha         1 855       0.107000
     35 H20         -5.8400     0.1320    -0.3420 ha         1 855       0.119000
     36 H21         -5.5510     2.6060    -0.3360 ha         1 855       0.120000
     37 H22         -3.2760     3.5940    -0.1890 ha         1 855       0.135000
     38 H141        -2.2260    -2.2500     0.2800 hn         1 855       0.500000
     39 H16          2.7080    -3.7310    -1.3440 h4         1 855       0.017100
@<TRIPOS>BOND
     1     1     2 1   
     2     1    25 1   
     3     1    26 1   
     4     1    27 1   
     5     2     3 ar  
     6     2     7 ar  
     7     3     4 ar  
     8     3    28 1   
     9     4     5 ar  
    10     4    29 1   
    11     5     6 ar  
    12     5    30 1   
    13     6     7 ar  
    14     6     8 1   
    15     8     9 ar  
    16     8    23 ar  
    17     9    10 ar  
    18    10    17 ar  
    19    10    24 1   
    20    11    12 ar  
    21    11    16 ar  
    22    11    24 1   
    23    12    13 ar  
    24    12    31 1   
    25    13    14 ar  
    26    13    39 1   
    27    14    15 ar  
    28    15    16 ar  
    29    15    32 1   
    30    16    33 1   
    31    17    18 ar  
    32    17    22 ar  
    33    18    19 ar  
    34    18    34 1   
    35    19    20 ar  
    36    19    35 1   
    37    20    21 ar  
    38    20    36 1   
    39    21    22 ar  
    40    21    37 1   
    41    22    23 ar  
    42    24    38 1   
@<TRIPOS>SUBSTRUCTURE
     1 855         1 TEMP              0 ****  ****    0 ROOT
