@<TRIPOS>MOLECULE
856
   28    28     1     0     0
SMALL
No Charge or Current Charge


@<TRIPOS>ATOM
      1 C13          5.1570     0.8620    -0.3850 c3         1 856       0.158600
      2 C15         -0.4780    -1.5680     0.0800 ca         1 856      -0.073000
      3 C01         -5.9030     0.0170     0.1090 c3         1 856       0.152900
      4 O02         -4.5040    -0.3260     0.0950 os         1 856      -0.437100
      5 O04         -3.9020     1.8690    -0.1470 o          1 856      -0.485000
      6 C05         -2.1500     0.2180    -0.0420 ca         1 856      -0.115600
      7 C06         -1.1030     1.1550    -0.1720 ca         1 856      -0.074500
      8 C07          0.2400     0.7380    -0.1770 ca         1 856      -0.073000
      9 C08          0.5700    -0.6310    -0.0510 ca         1 856      -0.113600
     10 C09          2.0080    -1.1010    -0.0540 c          1 856       0.606700
     11 O10          2.3230    -2.2800     0.0630 o          1 856      -0.490000
     12 O11          2.9210    -0.0890    -0.2060 os         1 856      -0.431100
     13 C12          4.3230    -0.4330    -0.2180 c3         1 856       0.165600
     14 O14          5.0200     1.7270     0.7580 oh         1 856      -0.649000
     15 C16         -1.8210    -1.1510     0.0850 ca         1 856      -0.074500
     16 H1           6.2110     0.5840    -0.5200 h1         1 856       0.029700
     17 H2           4.8340     1.3790    -1.2990 h1         1 856       0.029700
     18 H3          -0.2550    -2.6280     0.1790 ha         1 856       0.140000
     19 H4          -6.1330     0.6900     0.9460 h1         1 856       0.050367
     20 H5          -6.1950     0.5110    -0.8260 h1         1 856       0.050367
     21 H6          -6.5160    -0.8870     0.2220 h1         1 856       0.050367
     22 H7          -1.3250     2.2150    -0.2710 ha         1 856       0.137500
     23 H8           1.0200     1.4900    -0.2790 ha         1 856       0.140000
     24 H9           4.5470    -1.1090    -1.0540 h1         1 856       0.059700
     25 H10          4.6150    -0.9350     0.7140 h1         1 856       0.059700
     26 H11          5.5360     2.5410     0.5640 ho         1 856       0.445000
     27 H12         -2.6000    -1.9030     0.1880 ha         1 856       0.137500
     28 C03         -3.5890     0.6890    -0.0390 c          1 856       0.602700
@<TRIPOS>BOND
     1     1    13 1   
     2     1    14 1   
     3     1    16 1   
     4     1    17 1   
     5     2     9 ar  
     6     2    15 ar  
     7     2    18 1   
     8     3     4 1   
     9     3    19 1   
    10     3    20 1   
    11     3    21 1   
    12     4    28 1   
    13     5    28 2   
    14     6     7 ar  
    15     6    15 ar  
    16     6    28 1   
    17     7     8 ar  
    18     7    22 1   
    19     8     9 ar  
    20     8    23 1   
    21     9    10 1   
    22    10    11 2   
    23    10    12 1   
    24    12    13 1   
    25    13    24 1   
    26    13    25 1   
    27    14    26 1   
    28    15    27 1   
@<TRIPOS>SUBSTRUCTURE
     1 856         1 TEMP              0 ****  ****    0 ROOT
