@<TRIPOS>MOLECULE
856
   28    28     1     0     0
SMALL
bcc


@<TRIPOS>ATOM
      1 C13          5.0230     0.8350    -0.4260 c3         1 856       0.135400
      2 C15         -0.4470    -1.5450     0.0450 ca         1 856      -0.091000
      3 C01         -5.7670     0.0420     0.0750 c3         1 856       0.129700
      4 O02         -4.3800    -0.3010     0.0730 os         1 856      -0.413900
      5 O04         -3.8130     1.8490    -0.1120 o          1 856      -0.534000
      6 C05         -2.0980     0.2030    -0.0220 ca         1 856      -0.115600
      7 C06         -1.0800     1.1500    -0.0960 ca         1 856      -0.092500
      8 C07          0.2460     0.7550    -0.1020 ca         1 856      -0.091000
      9 C08          0.5700    -0.5980    -0.0320 ca         1 856      -0.113600
     10 C09          1.9790    -1.0790    -0.0330 c          1 856       0.655700
     11 O10          2.2850    -2.2420     0.0730 o          1 856      -0.539000
     12 O11          2.8490    -0.0960    -0.1630 os         1 856      -0.407900
     13 C12          4.2430    -0.4260    -0.1760 c3         1 856       0.142400
     14 O14          4.8470     1.7170     0.6560 oh         1 856      -0.586800
     15 C16         -1.7740    -1.1500     0.0490 ca         1 856      -0.092500
     16 H1           6.0720     0.5370    -0.5510 h1         1 856       0.029700
     17 H2           4.7060     1.2800    -1.3780 h1         1 856       0.029700
     18 H3          -0.2070    -2.5980     0.1000 ha         1 856       0.158000
     19 H4          -6.0090     0.7150     0.8970 h1         1 856       0.050367
     20 H5          -6.0610     0.5030    -0.8680 h1         1 856       0.050367
     21 H6          -6.3030    -0.8940     0.2030 h1         1 856       0.050367
     22 H7          -1.3200     2.2030    -0.1500 ha         1 856       0.155500
     23 H8           1.0180     1.5090    -0.1580 ha         1 856       0.158000
     24 H9           4.4540    -1.1450    -0.9710 h1         1 856       0.059700
     25 H10          4.5270    -0.8780     0.7770 h1         1 856       0.059700
     26 H11          5.3420     2.5190     0.4700 ho         1 856       0.406000
     27 H12         -2.5450    -1.9050     0.1060 ha         1 856       0.155500
     28 C03         -3.5070     0.6840    -0.0260 c          1 856       0.651700
@<TRIPOS>BOND
     1     1    13 1   
     2     1    14 1   
     3     1    16 1   
     4     1    17 1   
     5     2     9 ar  
     6     2    15 ar  
     7     2    18 1   
     8     3     4 1   
     9     3    19 1   
    10     3    20 1   
    11     3    21 1   
    12     4    28 1   
    13     5    28 2   
    14     6     7 ar  
    15     6    15 ar  
    16     6    28 1   
    17     7     8 ar  
    18     7    22 1   
    19     8     9 ar  
    20     8    23 1   
    21     9    10 1   
    22    10    11 2   
    23    10    12 1   
    24    12    13 1   
    25    13    24 1   
    26    13    25 1   
    27    14    26 1   
    28    15    27 1   
@<TRIPOS>SUBSTRUCTURE
     1 856         1 TEMP              0 ****  ****    0 ROOT
