@<TRIPOS>MOLECULE
857
   62    66     1     0     0
SMALL
bcc


@<TRIPOS>ATOM
      1 C21         -3.4560     2.6520     1.1900 ca         1 857      -0.061000
      2 C24         -2.3400     2.3930     0.4090 ca         1 857      -0.183000
      3 C25         -2.3080     1.2350    -0.3600 ca         1 857       0.207600
      4 C6          -3.3980     0.3640    -0.3610 ca         1 857      -0.263000
      5 C7          -4.5250     0.6340     0.4060 ca         1 857       0.192100
      6 C10         -4.5350     1.7920     1.1940 ca         1 857      -0.034600
      7 C11          7.0190    -1.4310     0.2210 ca         1 857       0.383800
      8 N3           8.3060    -1.3540    -0.0930 nb         1 857      -0.701000
      9 C12          6.0910    -0.4410    -0.0630 ca         1 857      -0.268300
     10 C13          6.5420     0.6980    -0.7190 ca         1 857       0.167100
     11 C8           7.8890     0.7920    -1.0550 ca         1 857      -0.267300
     12 C9           8.7210    -0.2600    -0.7190 ca         1 857       0.428200
     13 C14          3.4990     1.2070    -1.5980 ca         1 857      -0.086000
     14 C15          2.1670     1.2520    -1.2100 ca         1 857       0.107400
     15 C16          1.8290     1.7840     0.0320 ca         1 857       0.012100
     16 C17          2.7340     2.2930     0.9310 ca         1 857      -0.084000
     17 C1           4.0690     2.2480     0.5400 ca         1 857      -0.133000
     18 C18          4.4230     1.7180    -0.6980 ca         1 857       0.081100
     19 C19          0.0740     1.1390    -1.0150 cc         1 857       0.780500
     20 N2          -1.2350     0.9040    -1.1960 nu         1 857      -0.706600
     21 N4           1.0170     0.8530    -1.8560 nd         1 857      -0.646100
     22 CL          -5.9210     2.1350     2.1680 cl         1 857      -0.090400
     23 O4           0.4710     1.6980     0.1430 os         1 857      -0.288700
     24 O2           5.3800    -2.8240     1.2500 o          1 857      -0.607100
     25 N5           7.5080    -3.5760     1.1590 ns         1 857      -0.552900
     26 C22          7.2500    -4.8290     1.8240 c3         1 857       0.096300
     27 O3          -5.6060    -0.1440     0.4630 os         1 857      -0.297900
     28 C23         -5.6630    -1.3220    -0.3290 c3         1 857       0.147400
     29 N1          -8.1050    -1.1040    -0.5750 n3         1 857      -0.737600
     30 C2          -8.9780    -1.8570    -1.4600 c5         1 857       0.169800
     31 C3          -8.0320    -2.8140    -2.1590 c5         1 857      -0.086400
     32 C4          -7.1210    -3.2380    -1.0080 c5         1 857      -0.092400
     33 C5          -7.0170    -1.9770    -0.1320 c5         1 857       0.184500
     34 C26         -8.8080    -0.4000     0.4700 c3         1 857       0.166100
     35 H21         -3.4860     3.5500     1.7930 ha         1 857       0.151000
     36 H24         -1.5320     3.1070     0.4000 ha         1 857       0.154000
     37 H6          -3.3500    -0.5340    -0.9640 ha         1 857       0.141000
     38 H12          5.0570    -0.5740     0.2230 ha         1 857       0.180000
     39 H8           8.2780     1.6630    -1.5640 ha         1 857       0.158000
     40 H9           9.7740    -0.2110    -0.9670 h4         1 857       0.023100
     41 H14          3.8050     0.8020    -2.5530 ha         1 857       0.167000
     42 H17          2.4390     2.7040     1.8860 ha         1 857       0.158000
     43 H1           4.8370     2.6320     1.1980 ha         1 857       0.153000
     44 HN2         -1.4420     0.3350    -2.0040 hn         1 857       0.472800
     45 HN5          8.4420    -3.3560     0.8510 hn         1 857       0.344500
     46 H221         6.8390    -4.6760     2.8230 h1         1 857       0.040367
     47 H222         6.5520    -5.4490     1.2600 h1         1 857       0.040367
     48 H223         8.1890    -5.3670     1.9190 h1         1 857       0.040367
     49 H231        -5.5230    -1.0770    -1.3880 h1         1 857       0.040700
     50 H232        -4.8680    -2.0140    -0.0290 h1         1 857       0.040700
     51 H21A        -9.7440    -2.4260    -0.9060 h1         1 857       0.037700
     52 H22         -9.5060    -1.1880    -2.1440 h1         1 857       0.037700
     53 H31         -8.5460    -3.6540    -2.6260 hc         1 857       0.052700
     54 H32         -7.4660    -2.2930    -2.9350 hc         1 857       0.052700
     55 H41         -7.5910    -4.0440    -0.4420 hc         1 857       0.049700
     56 H42         -6.1480    -3.6050    -1.3390 hc         1 857       0.049700
     57 H5          -7.1250    -2.2430     0.9290 h1         1 857       0.051700
     58 H261        -9.3550    -1.0720     1.1500 h1         1 857       0.034033
     59 H262        -8.1210     0.1970     1.0660 h1         1 857       0.034033
     60 H263        -9.5360     0.2820     0.0270 h1         1 857       0.034033
     61 O1           5.7550     1.7340    -1.0620 os         1 857      -0.244200
     62 C20          6.5530    -2.6770     0.9270 c          1 857       0.566600
@<TRIPOS>BOND
     1     1     2 ar  
     2     1     6 ar  
     3     1    35 1   
     4     2     3 ar  
     5     2    36 1   
     6     3     4 ar  
     7     3    20 1   
     8     4     5 ar  
     9     4    37 1   
    10     5     6 ar  
    11     5    27 1   
    12     6    22 1   
    13     7     8 ar  
    14     7     9 ar  
    15     7    62 1   
    16     8    12 ar  
    17     9    10 ar  
    18     9    38 1   
    19    10    11 ar  
    20    10    61 1   
    21    11    12 ar  
    22    11    39 1   
    23    12    40 1   
    24    13    14 ar  
    25    13    18 ar  
    26    13    41 1   
    27    14    15 ar  
    28    14    21 1   
    29    15    16 ar  
    30    15    23 1   
    31    16    17 ar  
    32    16    42 1   
    33    17    18 ar  
    34    17    43 1   
    35    18    61 1   
    36    19    20 1   
    37    19    21 2   
    38    19    23 1   
    39    20    44 1   
    40    24    62 2   
    41    25    26 1   
    42    25    45 1   
    43    25    62 1   
    44    26    46 1   
    45    26    47 1   
    46    26    48 1   
    47    27    28 1   
    48    28    33 1   
    49    28    49 1   
    50    28    50 1   
    51    29    30 1   
    52    29    33 1   
    53    29    34 1   
    54    30    31 1   
    55    30    51 1   
    56    30    52 1   
    57    31    32 1   
    58    31    53 1   
    59    31    54 1   
    60    32    33 1   
    61    32    55 1   
    62    32    56 1   
    63    33    57 1   
    64    34    58 1   
    65    34    59 1   
    66    34    60 1   
@<TRIPOS>SUBSTRUCTURE
     1 857         1 TEMP              0 ****  ****    0 ROOT
