@<TRIPOS>MOLECULE
857
   62    66     1     0     0
SMALL
No Charge or Current Charge


@<TRIPOS>ATOM
      1 C21         -3.4880     2.0980     1.9370 ca         1 857      -0.043000
      2 C24         -2.4050     2.0570     1.0420 ca         1 857      -0.165000
      3 C25         -2.4590     1.2380    -0.0980 ca         1 857       0.346000
      4 C6          -3.6030     0.4720    -0.3540 ca         1 857      -0.245000
      5 C7          -4.6960     0.5050     0.5410 ca         1 857       0.192100
      6 C10         -4.6310     1.3220     1.6900 ca         1 857       0.057000
      7 C11          7.5830    -1.4210     0.3160 ca         1 857       0.318500
      8 N3           8.8480    -0.9250     0.1590 nb         1 857      -0.701000
      9 C12          6.4720    -0.7850    -0.2750 ca         1 857      -0.185000
     10 C13          6.6630     0.3810    -1.0310 ca         1 857       0.167100
     11 C8           7.9610     0.8710    -1.1950 ca         1 857      -0.184000
     12 C9           9.0220     0.1930    -0.5830 ca         1 857       0.362900
     13 C14          3.2280     1.0080    -1.8970 ca         1 857      -0.068000
     14 C15          1.9630     1.1260    -1.3060 ca         1 857       0.107400
     15 C16          1.8290     1.3600     0.0330 ca         1 857       0.012100
     16 C17          2.9290     1.5000     0.8870 ca         1 857      -0.066000
     17 C1           4.2170     1.3860     0.3190 ca         1 857      -0.115000
     18 C18          4.3640     1.1300    -1.0700 ca         1 857       0.081100
     19 C19         -0.0700     1.2370    -0.8600 cc         1 857       0.780500
     20 N2          -1.4110     1.1870    -1.0010 nu         1 857      -0.900200
     21 N4           0.7250     1.0360    -1.9070 nd         1 857      -0.646100
     22 Cl          -5.9800     1.3930     2.8260 cl         1 857      -0.182000
     23 O4           0.5200     1.4340     0.3750 os         1 857      -0.288700
     24 O2           6.2840    -3.2150     1.3440 o          1 857      -0.607100
     25 N5           8.5310    -3.2450     1.6860 ns         1 857      -0.485900
     26 C22          8.5780    -4.4540     2.5110 c3         1 857       0.096300
     27 O3          -5.8400    -0.2410     0.3290 os         1 857      -0.321100
     28 C23         -6.0280    -1.0550    -0.8450 c3         1 857       0.170600
     29 N1          -8.6140    -0.8720    -1.0850 n3         1 857      -0.737600
     30 C2          -9.7390    -1.8330    -1.0650 c5         1 857       0.169800
     31 C3          -9.1760    -3.0470    -1.8570 c5         1 857      -0.086400
     32 C4          -7.6330    -2.8180    -1.8580 c5         1 857      -0.092400
     33 C5          -7.4320    -1.7260    -0.7740 c5         1 857       0.184500
     34 C26         -8.8120     0.3210    -0.2300 c3         1 857       0.166100
     35 H21         -3.4430     2.7340     2.8180 ha         1 857       0.133000
     36 H24         -1.5340     2.6750     1.2340 ha         1 857       0.136000
     37 H6          -3.6290    -0.1490    -1.2420 ha         1 857       0.123000
     38 H12          5.4780    -1.2030    -0.1470 ha         1 857       0.162000
     39 H8           8.1490     1.7630    -1.7830 ha         1 857       0.140000
     40 H9          10.0450     0.5530    -0.6880 h4         1 857       0.023100
     41 H14          3.3290     0.8240    -2.9620 ha         1 857       0.149000
     42 H17          2.7950     1.6920     1.9490 ha         1 857       0.140000
     43 H1           5.0930     1.5020     0.9520 ha         1 857       0.135000
     44 HN2         -1.6360     0.8220    -1.9200 hn         1 857       0.528000
     45 HN5          9.3930    -2.7510     1.4750 hn         1 857       0.344500
     46 H221         7.9730    -4.3080     3.4150 h1         1 857       0.040367
     47 H222         8.1850    -5.3060     1.9410 h1         1 857       0.040367
     48 H223         9.6170    -4.6600     2.8000 h1         1 857       0.040367
     49 H231        -5.9600    -0.4530    -1.7600 h1         1 857       0.040700
     50 H232        -5.2630    -1.8420    -0.8840 h1         1 857       0.040700
     51 H21A        -9.9890    -2.1250    -0.0350 h1         1 857       0.037700
     52 H22        -10.6470    -1.4220    -1.5280 h1         1 857       0.037700
     53 H31         -9.4530    -3.9920    -1.3750 hc         1 857       0.052700
     54 H32         -9.5710    -3.0780    -2.8780 hc         1 857       0.052700
     55 H41         -7.0750    -3.7340    -1.6320 hc         1 857       0.049700
     56 H42         -7.2940    -2.4670    -2.8400 hc         1 857       0.049700
     57 H5          -7.5300    -2.1740     0.2260 h1         1 857       0.051700
     58 H261        -8.8610     0.0400     0.8300 h1         1 857       0.034033
     59 H262        -7.9920     1.0380    -0.3620 h1         1 857       0.034033
     60 H263        -9.7470     0.8320    -0.4950 h1         1 857       0.034033
     61 O1           5.6130     1.0300    -1.6400 os         1 857      -0.244200
     62 C20          7.3800    -2.6970     1.1500 c          1 857       0.499600
@<TRIPOS>BOND
     1     1     2 ar  
     2     1     6 ar  
     3     1    35 1   
     4     2     3 ar  
     5     2    36 1   
     6     3     4 ar  
     7     3    20 1   
     8     4     5 ar  
     9     4    37 1   
    10     5     6 ar  
    11     5    27 1   
    12     6    22 1   
    13     7     8 ar  
    14     7     9 ar  
    15     7    62 1   
    16     8    12 ar  
    17     9    10 ar  
    18     9    38 1   
    19    10    11 ar  
    20    10    61 1   
    21    11    12 ar  
    22    11    39 1   
    23    12    40 1   
    24    13    14 ar  
    25    13    18 ar  
    26    13    41 1   
    27    14    15 ar  
    28    14    21 1   
    29    15    16 ar  
    30    15    23 1   
    31    16    17 ar  
    32    16    42 1   
    33    17    18 ar  
    34    17    43 1   
    35    18    61 1   
    36    19    20 1   
    37    19    21 2   
    38    19    23 1   
    39    20    44 1   
    40    24    62 2   
    41    25    26 1   
    42    25    45 1   
    43    25    62 1   
    44    26    46 1   
    45    26    47 1   
    46    26    48 1   
    47    27    28 1   
    48    28    33 1   
    49    28    49 1   
    50    28    50 1   
    51    29    30 1   
    52    29    33 1   
    53    29    34 1   
    54    30    31 1   
    55    30    51 1   
    56    30    52 1   
    57    31    32 1   
    58    31    53 1   
    59    31    54 1   
    60    32    33 1   
    61    32    55 1   
    62    32    56 1   
    63    33    57 1   
    64    34    58 1   
    65    34    59 1   
    66    34    60 1   
@<TRIPOS>SUBSTRUCTURE
     1 857         1 TEMP              0 ****  ****    0 ROOT
