@<TRIPOS>MOLECULE
859
   39    41     1     0     0
SMALL
abcg2


@<TRIPOS>ATOM
      1 C1           1.1370     0.5480     7.1390 ca         1 859       0.416900
      2 N2           1.6420    -0.2880     6.2400 nb         1 859      -0.299000
      3 C3           1.1020    -0.2740     5.0270 ca         1 859       0.421900
      4 C4           0.0430     0.5910     4.7090 ca         1 859      -0.325000
      5 C5          -0.3910     1.4070     5.7260 ca         1 859       0.170900
      6 N6           0.1340     1.4070     6.9470 nb         1 859      -0.275000
      7 N7           1.5940    -1.0940     4.0620 nu         1 859      -0.948900
      8 C8           2.6260    -2.0250     4.1650 ca         1 859       0.356000
      9 C9           3.5410    -2.1710     3.1050 ca         1 859      -0.206600
     10 C10          4.5400    -3.1390     3.1980 ca         1 859      -0.069000
     11 C11          4.6660    -3.9390     4.3200 ca         1 859      -0.141000
     12 C12          3.7670    -3.7830     5.3660 ca         1 859      -0.057000
     13 C13          2.7510    -2.8470     5.2850 ca         1 859      -0.127000
     14 N14          1.6560     0.5830     8.4000 nu         1 859      -0.930900
     15 C15          2.6780    -0.1270     9.0160 ca         1 859       0.360000
     16 C16          2.8970     0.1560    10.3720 ca         1 859      -0.211000
     17 C17          3.8920    -0.5080    11.0630 ca         1 859      -0.039000
     18 C18          4.6910    -1.4590    10.4430 ca         1 859      -0.242000
     19 C19          4.4730    -1.7340     9.0970 ca         1 859       0.163100
     20 C20          3.4770    -1.0740     8.3800 ca         1 859      -0.183000
     21 O21          5.2030    -2.6430     8.4200 oh         1 859      -0.536100
     22 C22          3.4230    -1.3420     1.8680 c          1 859       0.627700
     23 N23          4.5740    -1.0230     1.2650 nt         1 859      -0.593000
     24 O24          2.3300    -0.9890     1.4290 o          1 859      -0.638100
     25 H4          -0.4070     0.6170     3.7270 ha         1 859       0.141000
     26 H5          -1.2080     2.1000     5.5560 h4         1 859       0.021100
     27 HN7          1.3150    -0.8870     3.1110 hn         1 859       0.538000
     28 H10          5.2250    -3.2870     2.3720 ha         1 859       0.110000
     29 H11          5.4490    -4.6840     4.3710 ha         1 859       0.118000
     30 H12          3.8410    -4.4060     6.2460 ha         1 859       0.122000
     31 H13          2.0390    -2.7600     6.0920 ha         1 859       0.141000
     32 HN14         1.1880     1.2540     8.9910 hn         1 859       0.512000
     33 H16          2.2840     0.8930    10.8780 ha         1 859       0.115000
     34 H17          4.0500    -0.2810    12.1100 ha         1 859       0.111000
     35 H18          5.4660    -1.9730    10.9990 ha         1 859       0.114000
     36 H20          3.3330    -1.3080     7.3380 ha         1 859       0.164000
     37 HO21         5.8590    -3.0430     9.0010 ho         1 859       0.462000
     38 H231         5.4690    -1.1980     1.6880 hn         1 859       0.318000
     39 H232         4.5630    -0.4770     0.4190 hn         1 859       0.318000
@<TRIPOS>BOND
     1     1     2 ar  
     2     1     6 ar  
     3     1    14 1   
     4     2     3 ar  
     5     3     4 ar  
     6     3     7 1   
     7     4     5 ar  
     8     4    25 1   
     9     5     6 ar  
    10     5    26 1   
    11     7     8 1   
    12     7    27 1   
    13     8     9 ar  
    14     8    13 ar  
    15     9    10 ar  
    16     9    22 1   
    17    10    11 ar  
    18    10    28 1   
    19    11    12 ar  
    20    11    29 1   
    21    12    13 ar  
    22    12    30 1   
    23    13    31 1   
    24    14    15 1   
    25    14    32 1   
    26    15    16 ar  
    27    15    20 ar  
    28    16    17 ar  
    29    16    33 1   
    30    17    18 ar  
    31    17    34 1   
    32    18    19 ar  
    33    18    35 1   
    34    19    20 ar  
    35    19    21 1   
    36    20    36 1   
    37    21    37 1   
    38    22    23 1   
    39    22    24 2   
    40    23    38 1   
    41    23    39 1   
@<TRIPOS>SUBSTRUCTURE
     1 859         1 TEMP              0 ****  ****    0 ROOT
