@<TRIPOS>MOLECULE
859
   39    41     1     0     0
SMALL
No Charge or Current Charge


@<TRIPOS>ATOM
      1 C1           1.1880     0.6700     7.2210 ca         1 859       0.416900
      2 N2           1.7260    -0.1850     6.3380 nb         1 859      -0.299000
      3 C3           1.2570    -0.1290     5.0850 ca         1 859       0.421900
      4 C4           0.2670     0.7830     4.7160 ca         1 859      -0.325000
      5 C5          -0.2400     1.6270     5.7140 ca         1 859       0.170900
      6 N6           0.2200     1.5680     6.9790 nb         1 859      -0.275000
      7 N7           1.8070    -0.9590     4.1220 nu         1 859      -0.948900
      8 C8           2.7690    -1.9750     4.1090 ca         1 859       0.356000
      9 C9           3.5010    -2.2420     2.9210 ca         1 859      -0.206600
     10 C10          4.4830    -3.2680     2.9450 ca         1 859      -0.069000
     11 C11          4.7190    -4.0150     4.1080 ca         1 859      -0.141000
     12 C12          3.9750    -3.7650     5.2660 ca         1 859      -0.057000
     13 C13          3.0030    -2.7560     5.2610 ca         1 859      -0.127000
     14 N14          1.6130     0.6150     8.5400 nu         1 859      -0.930900
     15 C15          2.5930    -0.1030     9.2280 ca         1 859       0.360000
     16 C16          2.4110    -0.3140    10.6040 ca         1 859      -0.211000
     17 C17          3.3650    -1.0240    11.3530 ca         1 859      -0.039000
     18 C18          4.5160    -1.5200    10.7210 ca         1 859      -0.242000
     19 C19          4.7100    -1.2980     9.3510 ca         1 859       0.163100
     20 C20          3.7580    -0.5890     8.6090 ca         1 859      -0.183000
     21 O21          5.8320    -1.7650     8.7400 oh         1 859      -0.536100
     22 C22          3.2530    -1.4650     1.6410 c          1 859       0.627700
     23 N23          4.1110    -1.6370     0.6140 nt         1 859      -0.593000
     24 O24          2.3070    -0.7100     1.4760 o          1 859      -0.638100
     25 H4          -0.1060     0.8380     3.6970 ha         1 859       0.141000
     26 H5          -1.0190     2.3580     5.5030 h4         1 859       0.021100
     27 HN7          1.6090    -0.6340     3.1690 hn         1 859       0.538000
     28 H10          5.0680    -3.5120     2.0620 ha         1 859       0.110000
     29 H11          5.4730    -4.8000     4.1070 ha         1 859       0.118000
     30 H12          4.1460    -4.3540     6.1650 ha         1 859       0.122000
     31 H13          2.4220    -2.5990     6.1620 ha         1 859       0.141000
     32 HN14         1.0050     1.1530     9.1540 hn         1 859       0.512000
     33 H16          1.5210     0.0640    11.1000 ha         1 859       0.115000
     34 H17          3.2110    -1.1890    12.4180 ha         1 859       0.111000
     35 H18          5.2520    -2.0690    11.3030 ha         1 859       0.114000
     36 H20          3.9440    -0.4080     7.5570 ha         1 859       0.164000
     37 HO21         6.3780    -2.2240     9.4130 ho         1 859       0.462000
     38 H231         4.9090    -2.2430     0.7130 hn         1 859       0.318000
     39 H232         3.9530    -1.1320    -0.2440 hn         1 859       0.318000
@<TRIPOS>BOND
     1     1     2 ar  
     2     1     6 ar  
     3     1    14 1   
     4     2     3 ar  
     5     3     4 ar  
     6     3     7 1   
     7     4     5 ar  
     8     4    25 1   
     9     5     6 ar  
    10     5    26 1   
    11     7     8 1   
    12     7    27 1   
    13     8     9 ar  
    14     8    13 ar  
    15     9    10 ar  
    16     9    22 1   
    17    10    11 ar  
    18    10    28 1   
    19    11    12 ar  
    20    11    29 1   
    21    12    13 ar  
    22    12    30 1   
    23    13    31 1   
    24    14    15 1   
    25    14    32 1   
    26    15    16 ar  
    27    15    20 ar  
    28    16    17 ar  
    29    16    33 1   
    30    17    18 ar  
    31    17    34 1   
    32    18    19 ar  
    33    18    35 1   
    34    19    20 ar  
    35    19    21 1   
    36    20    36 1   
    37    21    37 1   
    38    22    23 1   
    39    22    24 2   
    40    23    38 1   
    41    23    39 1   
@<TRIPOS>SUBSTRUCTURE
     1 859         1 TEMP              0 ****  ****    0 ROOT
