@<TRIPOS>MOLECULE
85A
   56    59     1     0     0
SMALL
bcc


@<TRIPOS>ATOM
      1 C1          -0.9380    -1.9400     0.2200 ca         1 85A      -0.280000
      2 C2          -1.9420    -2.6270     0.8930 ca         1 85A       0.166100
      3 C3          -2.8720    -1.9270     1.6730 ca         1 85A      -0.009400
      4 C4          -2.7930    -0.5410     1.7050 ca         1 85A      -0.047000
      5 C5          -1.7860     0.1300     1.0430 ca         1 85A      -0.064600
      6 C6          -0.8160    -0.5490     0.2950 ca         1 85A       0.213600
      7 N7           0.2090     0.1330    -0.3070 nu         1 85A      -0.747600
      8 CL8         -1.7180     1.8640     1.1520 cl         1 85A      -0.110400
      9 C9          -8.3810    -7.2200     2.4670 cg         1 85A       0.158800
     10 N10         -9.0060    -8.1240     2.1200 n1         1 85A      -0.349800
     11 N11         -3.8810    -2.6290     2.3580 ns         1 85A      -0.460100
     12 C12         -4.2970    -2.2870     3.5950 c          1 85A       0.798100
     13 N13         -5.3890    -2.9840     4.1150 ns         1 85A      -0.564400
     14 O14         -3.8220    -1.3920     4.2690 o          1 85A      -0.604100
     15 C15         -6.1060    -4.0450     3.6550 ca         1 85A       0.524900
     16 N16         -5.6400    -4.7970     2.6700 nb         1 85A      -0.819000
     17 C17         -6.3600    -5.8380     2.2960 ca         1 85A       0.642300
     18 C18         -7.6020    -6.1060     2.8900 ca         1 85A       0.289000
     19 N19         -8.0700    -5.3390     3.8710 nb         1 85A      -0.540000
     20 C20         -7.3460    -4.3290     4.2700 ca         1 85A       0.194900
     21 O21         -2.1070    -3.9590     0.8200 os         1 85A      -0.326900
     22 C22         -1.2700    -4.6990    -0.0650 c3         1 85A       0.141400
     23 C23         -4.3730    -5.8790    -0.3350 c3         1 85A      -0.097400
     24 C24         -4.5680    -6.6660     0.9440 c3         1 85A       0.146400
     25 O25         -5.9400    -6.6710     1.3740 os         1 85A      -0.422100
     26 C26         -1.7780    -6.1140    -0.2100 c3         1 85A      -0.081400
     27 C27         -3.0650    -6.2690    -1.0230 c3         1 85A      -0.069400
     28 C28          1.1370    -0.5200    -1.1970 c3         1 85A       0.253100
     29 C29          2.2620     0.4050    -1.5690 ca         1 85A      -0.067300
     30 C30          2.7730     0.4180    -2.8610 ca         1 85A      -0.236300
     31 C31          3.8330     1.2600    -3.1590 ca         1 85A       0.400200
     32 N32          4.3960     2.0730    -2.2720 nb         1 85A      -0.658000
     33 C33          3.9040     2.0610    -1.0380 ca         1 85A       0.400200
     34 C34          2.8500     1.2540    -0.6380 ca         1 85A      -0.236300
     35 H20         -7.7240    -3.7110     5.0750 h4         1 85A       0.043100
     36 H13         -5.7350    -2.5600     4.9650 hn         1 85A       0.347500
     37 H11         -4.2600    -3.4700     1.9400 hn         1 85A       0.365500
     38 H4          -3.5250     0.0310     2.2540 ha         1 85A       0.167000
     39 H1          -0.2240    -2.4900    -0.3750 ha         1 85A       0.138000
     40 H221        -0.2460    -4.7040     0.3220 h1         1 85A       0.038700
     41 H222        -1.2520    -4.2210    -1.0510 h1         1 85A       0.038700
     42 H261        -1.8580    -6.5890     0.7720 hc         1 85A       0.054700
     43 H262        -0.9850    -6.6560    -0.7310 hc         1 85A       0.054700
     44 H271        -2.9690    -5.6990    -1.9510 hc         1 85A       0.045200
     45 H272        -3.1480    -7.3170    -1.3240 hc         1 85A       0.045200
     46 H231        -4.4170    -4.8070    -0.1380 hc         1 85A       0.060200
     47 H232        -5.1950    -6.1050    -1.0190 hc         1 85A       0.060200
     48 H241        -4.3330    -7.7190     0.7800 h1         1 85A       0.068200
     49 H242        -3.9320    -6.2980     1.7500 h1         1 85A       0.068200
     50 HN7         -0.0040     1.0880    -0.5540 hn         1 85A       0.431800
     51 H281         0.6560    -0.9010    -2.1070 h1         1 85A       0.049200
     52 H282         1.5690    -1.3860    -0.6880 h1         1 85A       0.049200
     53 H34          2.5010     1.2940     0.3850 ha         1 85A       0.148000
     54 H33          4.3720     2.7290    -0.3240 h4         1 85A       0.022100
     55 H31          4.2400     1.2810    -4.1630 h4         1 85A       0.022100
     56 H30          2.3530    -0.2150    -3.6320 ha         1 85A       0.148000
@<TRIPOS>BOND
     1     1     2 ar  
     2     1     6 ar  
     3     1    39 1   
     4     2     3 ar  
     5     2    21 1   
     6     3     4 ar  
     7     3    11 1   
     8     4     5 ar  
     9     4    38 1   
    10     5     6 ar  
    11     5     8 1   
    12     6     7 1   
    13     7    28 1   
    14     7    50 1   
    15     9    10 3   
    16     9    18 1   
    17    11    12 1   
    18    11    37 1   
    19    12    13 1   
    20    12    14 2   
    21    13    15 1   
    22    13    36 1   
    23    15    16 ar  
    24    15    20 ar  
    25    16    17 ar  
    26    17    18 ar  
    27    17    25 1   
    28    18    19 ar  
    29    19    20 ar  
    30    20    35 1   
    31    21    22 1   
    32    22    26 1   
    33    22    40 1   
    34    22    41 1   
    35    23    24 1   
    36    23    27 1   
    37    23    46 1   
    38    23    47 1   
    39    24    25 1   
    40    24    48 1   
    41    24    49 1   
    42    26    27 1   
    43    26    42 1   
    44    26    43 1   
    45    27    44 1   
    46    27    45 1   
    47    28    29 1   
    48    28    51 1   
    49    28    52 1   
    50    29    30 ar  
    51    29    34 ar  
    52    30    31 ar  
    53    30    56 1   
    54    31    32 ar  
    55    31    55 1   
    56    32    33 ar  
    57    33    34 ar  
    58    33    54 1   
    59    34    53 1   
@<TRIPOS>SUBSTRUCTURE
     1 85A         1 TEMP              0 ****  ****    0 ROOT
