@<TRIPOS>MOLECULE
85A
   56    59     1     0     0
SMALL
No Charge or Current Charge


@<TRIPOS>ATOM
      1 C1          -0.9020    -2.0340     0.1890 ca         1 85A      -0.262000
      2 C2          -1.9000    -2.7190     0.9180 ca         1 85A       0.166100
      3 C3          -2.7060    -2.0150     1.8400 ca         1 85A      -0.102000
      4 C4          -2.5080    -0.6260     2.0050 ca         1 85A      -0.029000
      5 C5          -1.5160     0.0490     1.2780 ca         1 85A       0.027000
      6 C6          -0.7040    -0.6570     0.3660 ca         1 85A       0.352000
      7 N7           0.2850     0.0180    -0.3600 nu         1 85A      -0.941200
      8 Cl8         -1.3130     1.7890     1.5230 cl         1 85A      -0.202000
      9 C9          -8.7050    -6.7690     1.7580 cg         1 85A       0.248000
     10 N10         -9.3920    -7.5860     1.2780 n1         1 85A      -0.439000
     11 N11         -3.7270    -2.6890     2.5750 ns         1 85A      -0.134000
     12 C12         -4.2690    -2.3800     3.8160 c          1 85A       0.664100
     13 N13         -5.4430    -3.0010     4.1610 ns         1 85A      -0.330900
     14 O14         -3.7660    -1.5670     4.5810 o          1 85A      -0.604100
     15 C15         -6.2690    -3.8930     3.4690 ca         1 85A       0.524900
     16 N16         -5.6270    -4.9040     2.8330 nb         1 85A      -0.819000
     17 C17         -6.4460    -5.8440     2.2710 ca         1 85A       0.642300
     18 C18         -7.8750    -5.7540     2.3530 ca         1 85A       0.289000
     19 N19         -8.5110    -4.7310     3.0010 nb         1 85A      -0.540000
     20 C20         -7.6860    -3.8120     3.5690 ca         1 85A       0.194900
     21 O21         -2.0970    -4.0800     0.7640 os         1 85A      -0.350100
     22 C22         -1.2510    -4.8680    -0.0930 c3         1 85A       0.164600
     23 C23         -4.3100    -6.2750    -0.0370 c3         1 85A      -0.097400
     24 C24         -4.4890    -7.0150     1.3080 c3         1 85A       0.169600
     25 O25         -5.8780    -6.9550     1.6780 os         1 85A      -0.445300
     26 C26         -1.6850    -6.3470    -0.0450 c3         1 85A      -0.081400
     27 C27         -3.0120    -6.6680    -0.7810 c3         1 85A      -0.069400
     28 C28          1.4210    -0.5660    -1.0850 c3         1 85A       0.253100
     29 C29          2.3110     0.5430    -1.6270 ca         1 85A      -0.067300
     30 C30          2.0870     1.1040    -2.8980 ca         1 85A      -0.153000
     31 C31          2.9300     2.1310    -3.3590 ca         1 85A       0.334900
     32 N32          3.9630     2.6180    -2.6320 nb         1 85A      -0.658000
     33 C33          4.1780     2.0820    -1.4080 ca         1 85A       0.334900
     34 C34          3.3830     1.0530    -0.8720 ca         1 85A      -0.153000
     35 H20         -8.1620    -3.0020     4.1210 h4         1 85A       0.043100
     36 H13         -5.8200    -2.7030     5.0500 hn         1 85A       0.181000
     37 H11         -4.1610    -3.4740     2.1030 hn         1 85A       0.199000
     38 H4          -3.1290    -0.0500     2.6850 ha         1 85A       0.149000
     39 H1          -0.2760    -2.5580    -0.5220 ha         1 85A       0.120000
     40 H221        -0.2090    -4.7990     0.2440 h1         1 85A       0.038700
     41 H222        -1.3020    -4.5110    -1.1300 h1         1 85A       0.038700
     42 H261        -1.7210    -6.6900     0.9960 hc         1 85A       0.054700
     43 H262        -0.8910    -6.9320    -0.5250 hc         1 85A       0.054700
     44 H271        -3.0020    -6.1820    -1.7650 hc         1 85A       0.045200
     45 H272        -3.0440    -7.7470    -0.9790 hc         1 85A       0.045200
     46 H231        -4.3450    -5.1920     0.1260 hc         1 85A       0.060200
     47 H232        -5.1580    -6.5200    -0.6880 hc         1 85A       0.060200
     48 H241        -4.2020    -8.0650     1.1670 h1         1 85A       0.068200
     49 H242        -3.8330    -6.5950     2.0820 h1         1 85A       0.068200
     50 HN7          0.3360     1.0220    -0.1780 hn         1 85A       0.487000
     51 H281         1.0630    -1.1870    -1.9180 h1         1 85A       0.049200
     52 H282         2.0080    -1.2090    -0.4150 h1         1 85A       0.049200
     53 H34          3.6020     0.6640     0.1190 ha         1 85A       0.130000
     54 H33          5.0130     2.4900    -0.8390 h4         1 85A       0.022100
     55 H31          2.7730     2.5780    -4.3400 h4         1 85A       0.022100
     56 H30          1.2710     0.7550    -3.5250 ha         1 85A       0.130000
@<TRIPOS>BOND
     1     1     2 ar  
     2     1     6 ar  
     3     1    39 1   
     4     2     3 ar  
     5     2    21 1   
     6     3     4 ar  
     7     3    11 1   
     8     4     5 ar  
     9     4    38 1   
    10     5     6 ar  
    11     5     8 1   
    12     6     7 1   
    13     7    28 1   
    14     7    50 1   
    15     9    10 3   
    16     9    18 1   
    17    11    12 1   
    18    11    37 1   
    19    12    13 1   
    20    12    14 2   
    21    13    15 1   
    22    13    36 1   
    23    15    16 ar  
    24    15    20 ar  
    25    16    17 ar  
    26    17    18 ar  
    27    17    25 1   
    28    18    19 ar  
    29    19    20 ar  
    30    20    35 1   
    31    21    22 1   
    32    22    26 1   
    33    22    40 1   
    34    22    41 1   
    35    23    24 1   
    36    23    27 1   
    37    23    46 1   
    38    23    47 1   
    39    24    25 1   
    40    24    48 1   
    41    24    49 1   
    42    26    27 1   
    43    26    42 1   
    44    26    43 1   
    45    27    44 1   
    46    27    45 1   
    47    28    29 1   
    48    28    51 1   
    49    28    52 1   
    50    29    30 ar  
    51    29    34 ar  
    52    30    31 ar  
    53    30    56 1   
    54    31    32 ar  
    55    31    55 1   
    56    32    33 ar  
    57    33    34 ar  
    58    33    54 1   
    59    34    53 1   
@<TRIPOS>SUBSTRUCTURE
     1 85A         1 TEMP              0 ****  ****    0 ROOT
