@<TRIPOS>MOLECULE
85B
   54    56     1     0     0
SMALL
abcg2


@<TRIPOS>ATOM
      1 C13         19.4370    -2.2690    11.5390 c3         1 85B       0.198300
      2 C15         19.9650    -0.0380    12.5600 ca         1 85B      -0.091000
      3 C17         22.1550     0.9340    12.4480 ca         1 85B       0.181100
      4 C24         22.7720     4.2610    13.2180 c          1 85B       0.716000
      5 C28         24.6450     3.3540    11.8670 c3         1 85B      -0.085100
      6 C1          17.1710    -1.9530     4.2890 ca         1 85B       0.114100
      7 C2          16.3990    -1.7460     5.4210 ca         1 85B      -0.114000
      8 C3          16.9270    -1.9950     6.6750 ca         1 85B      -0.095000
      9 C4          18.2440    -2.4210     6.7960 ca         1 85B       0.076600
     10 C5          19.0160    -2.6100     5.6580 ca         1 85B      -0.095000
     11 C6          18.4800    -2.3990     4.3960 ca         1 85B      -0.114000
     12 C8          19.6120    -3.7390     8.3910 cc         1 85B       0.346800
     13 C11         18.6080    -1.9360     9.2170 c          1 85B       0.567000
     14 C14         20.3810    -1.1260    11.8090 ca         1 85B      -0.156300
     15 C16         20.8330     0.9980    12.8970 ca         1 85B      -0.103800
     16 C18         22.5930    -0.1470    11.6690 ca         1 85B      -0.103800
     17 C19         21.6990    -1.1670    11.3690 ca         1 85B      -0.091000
     18 C27         22.3520     3.2260    10.9020 c3         1 85B      -0.085100
     19 C30         17.1590    -1.2790     2.0050 c3         1 85B       0.522000
     20 F31         16.2460    -0.8370     1.1550 f          1 85B      -0.107333
     21 F32         18.0010    -0.2850     2.2770 f          1 85B      -0.107333
     22 F33         17.8560    -2.2360     1.3860 f          1 85B      -0.107333
     23 N7          18.7950    -2.6900     8.0640 n          1 85B      -0.253500
     24 N9          19.9420    -3.7180     9.6310 n2         1 85B      -0.465300
     25 N10         19.3270    -2.6220    10.1440 n          1 85B      -0.154800
     26 O25         23.1620     4.0820    14.3860 o          1 85B      -0.714500
     27 O26         22.1630     5.2530    12.7710 o          1 85B      -0.714500
     28 H1          18.4420    -2.0320    11.9180 h1         1 85B       0.061200
     29 H2          19.7650    -3.1710    12.0560 h1         1 85B       0.061200
     30 H3          18.9390     0.0070    12.9110 ha         1 85B       0.099500
     31 H4          24.2230     0.5630    10.4510 hc         1 85B       0.046200
     32 H5          24.7280    -0.0900    11.9960 hc         1 85B       0.046200
     33 H6          24.2090    -1.1760    10.7070 hc         1 85B       0.046200
     34 H7          20.2720     3.0650    13.1670 hc         1 85B       0.046200
     35 H8          19.3580     1.9250    14.1430 hc         1 85B       0.046200
     36 H9          21.0180     2.3400    14.5740 hc         1 85B       0.046200
     37 H10         25.2580     3.2110    12.7570 hc         1 85B       0.027867
     38 H11         24.9840     2.6580    11.0980 hc         1 85B       0.027867
     39 H12         24.8220     4.3670    11.5000 hc         1 85B       0.027867
     40 H13         15.3760    -1.4070     5.3230 ha         1 85B       0.135500
     41 H14         16.3050    -1.8610     7.5470 ha         1 85B       0.138000
     42 H15         20.0470    -2.9290     5.7390 ha         1 85B       0.138000
     43 H16         19.1030    -2.5900     3.5340 ha         1 85B       0.135500
     44 H17         19.9160    -4.4960     7.6860 h5         1 85B       0.067800
     45 H18         22.0460    -2.0120    10.7840 ha         1 85B       0.099500
     46 H19         21.2770     3.1500    11.0700 hc         1 85B       0.027867
     47 H20         22.5350     4.1790    10.4100 hc         1 85B       0.027867
     48 H21         22.6430     2.4370    10.2050 hc         1 85B       0.027867
     49 O12         17.9620    -0.9150     9.3600 o          1 85B      -0.535000
     50 C20         24.0110    -0.2170    11.1850 c3         1 85B      -0.042300
     51 C21         20.3470     2.1390    13.7400 c3         1 85B      -0.042300
     52 C23         23.1630     3.1590    12.1850 c3         1 85B       0.060000
     53 O22         23.0680     1.8620    12.8280 os         1 85B      -0.376100
     54 O29         16.5190    -1.7300     3.0910 os         1 85B      -0.408100
@<TRIPOS>BOND
     1     1    14 1   
     2     1    25 1   
     3     1    28 1   
     4     1    29 1   
     5     2    14 ar  
     6     2    15 ar  
     7     2    30 1   
     8     3    15 ar  
     9     3    16 ar  
    10     3    53 1   
    11     4    26 1   
    12     4    27 1   
    13     4    52 1   
    14     5    37 1   
    15     5    38 1   
    16     5    39 1   
    17     5    52 1   
    18     6     7 ar  
    19     6    11 ar  
    20     6    54 1   
    21     7     8 ar  
    22     7    40 1   
    23     8     9 ar  
    24     8    41 1   
    25     9    10 ar  
    26     9    23 1   
    27    10    11 ar  
    28    10    42 1   
    29    11    43 1   
    30    12    23 1   
    31    12    24 2   
    32    12    44 1   
    33    13    23 1   
    34    13    25 1   
    35    13    49 2   
    36    14    17 ar  
    37    15    51 1   
    38    16    17 ar  
    39    16    50 1   
    40    17    45 1   
    41    18    46 1   
    42    18    47 1   
    43    18    48 1   
    44    18    52 1   
    45    19    20 1   
    46    19    21 1   
    47    19    22 1   
    48    19    54 1   
    49    24    25 1   
    50    31    50 1   
    51    32    50 1   
    52    33    50 1   
    53    34    51 1   
    54    35    51 1   
    55    36    51 1   
    56    52    53 1   
@<TRIPOS>SUBSTRUCTURE
     1 85B         1 TEMP              0 ****  ****    0 ROOT
