@<TRIPOS>MOLECULE
85B
   54    56     1     0     0
SMALL
No Charge or Current Charge


@<TRIPOS>ATOM
      1 C13         19.8220    -2.6560    11.5600 c3         1 85B       0.198300
      2 C15         19.9610    -0.2360    12.3310 ca         1 85B      -0.091000
      3 C17         22.1060     0.8950    12.6010 ca         1 85B       0.181100
      4 C24         22.4030     4.4690    12.4730 c          1 85B       0.716000
      5 C28         24.6160     3.3390    11.9920 c3         1 85B      -0.085100
      6 C1          16.9180    -1.4590     4.4650 ca         1 85B       0.114100
      7 C2          16.2680    -1.3870     5.7050 ca         1 85B      -0.114000
      8 C3          16.9450    -1.7190     6.8920 ca         1 85B      -0.095000
      9 C4          18.3040    -2.1010     6.8670 ca         1 85B       0.076600
     10 C5          18.9380    -2.2200     5.6100 ca         1 85B      -0.095000
     11 C6          18.2620    -1.8870     4.4210 ca         1 85B      -0.114000
     12 C8          20.0720    -3.3800     8.1050 cc         1 85B       0.346800
     13 C11         18.7180    -2.1560     9.3660 c          1 85B       0.567000
     14 C14         20.6210    -1.4130    11.9400 ca         1 85B      -0.156300
     15 C16         20.6900     0.9200    12.6720 ca         1 85B      -0.103800
     16 C18         22.7750    -0.2980    12.2360 ca         1 85B      -0.103800
     17 C19         22.0250    -1.4400    11.8990 ca         1 85B      -0.091000
     18 C27         22.6210     2.7250    10.5420 c3         1 85B      -0.085100
     19 C30         16.7070    -1.1420     1.9980 c3         1 85B       0.522000
     20 F31         15.7630    -0.7500     1.1140 f          1 85B      -0.107333
     21 F32         17.7600    -0.3070     1.8450 f          1 85B      -0.107333
     22 F33         17.1000    -2.3830     1.6280 f          1 85B      -0.107333
     23 N7          18.9740    -2.5380     8.0700 n          1 85B      -0.253500
     24 N9          20.5330    -3.6030     9.3120 n2         1 85B      -0.465300
     25 N10         19.6880    -2.8330    10.1030 n          1 85B      -0.154800
     26 O25         22.1020     4.5930    13.6550 o          1 85B      -0.714500
     27 O26         22.1420     5.3340    11.6430 o          1 85B      -0.714500
     28 H1          18.8200    -2.6050    12.0060 h1         1 85B       0.061200
     29 H2          20.3150    -3.5430    11.9750 h1         1 85B       0.061200
     30 H3          18.8740    -0.2190    12.3710 ha         1 85B       0.099500
     31 H4          24.6790     0.0540    11.2500 hc         1 85B       0.046200
     32 H5          24.7550     0.1790    13.0180 hc         1 85B       0.046200
     33 H6          24.6540    -1.4050    12.2500 hc         1 85B       0.046200
     34 H7          19.9730     2.9520    12.3700 hc         1 85B       0.046200
     35 H8          18.8720     1.9440    13.3110 hc         1 85B       0.046200
     36 H9          20.3450     2.5540    14.0620 hc         1 85B       0.046200
     37 H10         24.9680     3.5750    13.0040 hc         1 85B       0.027867
     38 H11         25.1450     2.4450    11.6430 hc         1 85B       0.027867
     39 H12         24.8950     4.1730    11.3360 hc         1 85B       0.027867
     40 H13         15.2250    -1.0820     5.7460 ha         1 85B       0.135500
     41 H14         16.3930    -1.6860     7.8260 ha         1 85B       0.138000
     42 H15         19.9730    -2.5430     5.5380 ha         1 85B       0.138000
     43 H16         18.8020    -1.9720     3.4830 ha         1 85B       0.135500
     44 H17         20.4770    -3.8320     7.2080 h5         1 85B       0.067800
     45 H18         22.5350    -2.3530    11.5990 ha         1 85B       0.099500
     46 H19         21.5320     2.6180    10.4880 hc         1 85B       0.027867
     47 H20         22.9130     3.4940     9.8170 hc         1 85B       0.027867
     48 H21         23.0820     1.7850    10.2190 hc         1 85B       0.027867
     49 O12         17.8630    -1.3850     9.7840 o          1 85B      -0.535000
     50 C20         24.2980    -0.3700    12.1860 c3         1 85B      -0.042300
     51 C21         19.9310     2.1610    13.1260 c3         1 85B      -0.042300
     52 C23         23.0820     3.1250    11.9820 c3         1 85B       0.060000
     53 O22         22.8560     2.0160    12.9170 os         1 85B      -0.376100
     54 O29         16.1850    -1.1170     3.3430 os         1 85B      -0.408100
@<TRIPOS>BOND
     1     1    14 1   
     2     1    25 1   
     3     1    28 1   
     4     1    29 1   
     5     2    14 ar  
     6     2    15 ar  
     7     2    30 1   
     8     3    15 ar  
     9     3    16 ar  
    10     3    53 1   
    11     4    26 1   
    12     4    27 1   
    13     4    52 1   
    14     5    37 1   
    15     5    38 1   
    16     5    39 1   
    17     5    52 1   
    18     6     7 ar  
    19     6    11 ar  
    20     6    54 1   
    21     7     8 ar  
    22     7    40 1   
    23     8     9 ar  
    24     8    41 1   
    25     9    10 ar  
    26     9    23 1   
    27    10    11 ar  
    28    10    42 1   
    29    11    43 1   
    30    12    23 1   
    31    12    24 2   
    32    12    44 1   
    33    13    23 1   
    34    13    25 1   
    35    13    49 2   
    36    14    17 ar  
    37    15    51 1   
    38    16    17 ar  
    39    16    50 1   
    40    17    45 1   
    41    18    46 1   
    42    18    47 1   
    43    18    48 1   
    44    18    52 1   
    45    19    20 1   
    46    19    21 1   
    47    19    22 1   
    48    19    54 1   
    49    24    25 1   
    50    31    50 1   
    51    32    50 1   
    52    33    50 1   
    53    34    51 1   
    54    35    51 1   
    55    36    51 1   
    56    52    53 1   
@<TRIPOS>SUBSTRUCTURE
     1 85B         1 TEMP              0 ****  ****    0 ROOT
