@<TRIPOS>MOLECULE
85C
   52    55     1     0     0
SMALL
No Charge or Current Charge


@<TRIPOS>ATOM
      1 C1          -1.1570     3.4760     1.5250 ca         1 85C      -0.115000
      2 C2          -0.5560     3.0450     0.3160 ca         1 85C      -0.098300
      3 C3          -1.1150     1.9630    -0.4020 ca         1 85C      -0.077000
      4 C4          -2.3110     2.8360     2.0190 ca         1 85C      -0.039000
      5 C5          -2.8390     1.7670     1.2810 ca         1 85C      -0.154600
      6 C6          -2.2640     1.3320     0.1000 ca         1 85C      -0.084300
      7 N1          -4.1090     0.0080     0.5150 n          1 85C      -0.422800
      8 N2          -5.1600    -3.1050    -0.9970 ns         1 85C      -0.485500
      9 N3           1.9080     3.0760     0.2700 ns         1 85C      -0.522900
     10 C7          -3.0220     0.1580    -0.5070 c5         1 85C       0.144300
     11 C8          -4.0180     0.9320     1.5650 c          1 85C       0.583600
     12 C9          -5.1650    -1.0420     0.4270 c6         1 85C       0.049700
     13 C10         -6.3410    -0.5820    -0.4820 c6         1 85C      -0.092400
     14 C11         -6.2040    -1.0840    -1.9400 c6         1 85C      -0.163400
     15 C12         -5.8760    -2.5770    -2.0300 c          1 85C       0.577000
     16 C13         -4.6170    -2.4580     0.0800 c          1 85C       0.562000
     17 C14          0.6930     3.7390    -0.2060 c3         1 85C       0.157300
     18 C15          2.5800     2.0940    -0.4170 c          1 85C       0.664100
     19 O2          -3.7690    -3.0110     0.7630 o          1 85C      -0.499000
     20 C17          5.6670     0.3990     0.9220 ca         1 85C      -0.164000
     21 C18          6.6580    -0.5690     0.6950 ca         1 85C       0.147000
     22 Cl1          7.9100    -0.7990     1.9150 cl         1 85C      -0.209000
     23 C19          6.6450    -1.3390    -0.4880 ca         1 85C      -0.089300
     24 C22          7.7120    -2.3960    -0.7530 c3         1 85C      -0.040800
     25 C20          5.6240    -1.1190    -1.4320 ca         1 85C      -0.081000
     26 C21          4.6330    -0.1480    -1.2020 ca         1 85C      -0.122000
     27 C16          4.6460     0.6220    -0.0200 ca         1 85C      -0.001000
     28 N4           3.6780     1.6200     0.2830 ns         1 85C      -0.164000
     29 O4           2.2240     1.7080    -1.5200 o          1 85C      -0.627100
     30 O3          -6.2730    -3.2780    -2.9450 o          1 85C      -0.510000
     31 H1          -0.7280     4.3060     2.0810 ha         1 85C       0.116000
     32 H2          -0.6600     1.6190    -1.3290 ha         1 85C       0.142000
     33 H3          -2.7780     3.1610     2.9470 ha         1 85C       0.138000
     34 H4          -4.8880    -4.0710    -1.1080 hn         1 85C       0.330500
     35 H5           2.2680     3.3330     1.1810 hn         1 85C       0.311500
     36 H6          -3.4170     0.4070    -1.5000 h1         1 85C       0.068200
     37 H7          -2.3900    -0.7370    -0.5770 h1         1 85C       0.068200
     38 H8          -5.5810    -1.1710     1.4360 h1         1 85C       0.110700
     39 H9          -7.2760    -0.9880    -0.0690 hc         1 85C       0.070700
     40 H10         -6.4520     0.5110    -0.4540 hc         1 85C       0.070700
     41 H11         -7.0760    -0.8510    -2.5650 hc         1 85C       0.082200
     42 H12         -5.3440    -0.5630    -2.3800 hc         1 85C       0.082200
     43 H13          0.6820     3.7540    -1.3040 h1         1 85C       0.069700
     44 H14          0.7050     4.7830     0.1350 h1         1 85C       0.069700
     45 H15          5.6950     0.9810     1.8400 ha         1 85C       0.124000
     46 H16          7.7050    -3.1670     0.0260 hc         1 85C       0.048033
     47 H17          7.5560    -2.9000    -1.7140 hc         1 85C       0.048033
     48 H18          8.7120    -1.9480    -0.7770 hc         1 85C       0.048033
     49 H19          5.5950    -1.7020    -2.3500 ha         1 85C       0.118000
     50 H20          3.8640    -0.0140    -1.9560 ha         1 85C       0.147000
     51 H21          3.8210     2.0620     1.1800 hn         1 85C       0.147000
     52 O1          -4.7730     1.0200     2.5230 o          1 85C      -0.534000
@<TRIPOS>BOND
     1     1     2 ar  
     2     1     4 ar  
     3     1    31 1   
     4     2     3 ar  
     5     2    17 1   
     6     3     6 ar  
     7     3    32 1   
     8     4     5 ar  
     9     4    33 1   
    10     5     6 ar  
    11     5    11 1   
    12     6    10 1   
    13     7    10 1   
    14     7    11 1   
    15     7    12 1   
    16     8    15 1   
    17     8    16 1   
    18     8    34 1   
    19     9    17 1   
    20     9    18 1   
    21     9    35 1   
    22    10    36 1   
    23    10    37 1   
    24    11    52 2   
    25    12    13 1   
    26    12    16 1   
    27    12    38 1   
    28    13    14 1   
    29    13    39 1   
    30    13    40 1   
    31    14    15 1   
    32    14    41 1   
    33    14    42 1   
    34    15    30 2   
    35    16    19 2   
    36    17    43 1   
    37    17    44 1   
    38    18    28 1   
    39    18    29 2   
    40    20    21 ar  
    41    20    27 ar  
    42    20    45 1   
    43    21    22 1   
    44    21    23 ar  
    45    23    24 1   
    46    23    25 ar  
    47    24    46 1   
    48    24    47 1   
    49    24    48 1   
    50    25    26 ar  
    51    25    49 1   
    52    26    27 ar  
    53    26    50 1   
    54    27    28 1   
    55    28    51 1   
@<TRIPOS>SUBSTRUCTURE
     1 85C         1 TEMP              0 ****  ****    0 ROOT
