@<TRIPOS>MOLECULE
85C
   52    55     1     0     0
SMALL
abcg2


@<TRIPOS>ATOM
      1 C1          -1.4000     3.7450     1.2140 ca         1 85C      -0.115000
      2 C2          -0.6120     3.1100     0.2510 ca         1 85C      -0.098300
      3 C3          -1.0140     1.8860    -0.2850 ca         1 85C      -0.077000
      4 C4          -2.5870     3.1830     1.6600 ca         1 85C      -0.039000
      5 C5          -2.9660     1.9680     1.1170 ca         1 85C      -0.154600
      6 C6          -2.1960     1.3290     0.1600 ca         1 85C      -0.084300
      7 N1          -4.0580     0.0530     0.5900 n          1 85C      -0.422800
      8 N2          -4.4440    -2.9320    -0.7700 ns         1 85C      -0.485500
      9 N3           1.8490     3.0750     0.3500 ns         1 85C      -0.522900
     10 C7          -2.8660     0.0530    -0.2420 c5         1 85C       0.144300
     11 C8          -4.1590     1.1480     1.3930 c          1 85C       0.583600
     12 C9          -5.0600    -0.9900     0.6130 c6         1 85C       0.049700
     13 C10         -6.1810    -0.8130    -0.4020 c6         1 85C      -0.092400
     14 C11         -5.7400    -1.1320    -1.8180 c6         1 85C      -0.163400
     15 C12         -5.0460    -2.4580    -1.9240 c          1 85C       0.577000
     16 C13         -4.3710    -2.3380     0.4660 c          1 85C       0.562000
     17 C14          0.6880     3.7400    -0.1930 c3         1 85C       0.157300
     18 C15          2.5310     2.1200    -0.3280 c          1 85C       0.664100
     19 O2          -3.7720    -2.8630     1.3750 o          1 85C      -0.499000
     20 C17          5.0530    -0.1940     0.9720 ca         1 85C      -0.164000
     21 C18          5.9780    -1.1630     0.6310 ca         1 85C       0.147000
     22 CL1          6.7170    -2.0690     1.9160 cl         1 85C      -0.209000
     23 C19          6.3290    -1.4400    -0.6870 ca         1 85C      -0.089300
     24 C22          7.3280    -2.4940    -1.0530 c3         1 85C      -0.040800
     25 C20          5.6970    -0.6660    -1.6560 ca         1 85C      -0.081000
     26 C21          4.7770     0.3250    -1.3530 ca         1 85C      -0.122000
     27 C16          4.4380     0.5690    -0.0210 ca         1 85C      -0.001000
     28 N4           3.5570     1.5650     0.3960 ns         1 85C      -0.164000
     29 O4           2.2690     1.7980    -1.4780 o          1 85C      -0.627100
     30 O3          -4.9760    -3.1050    -2.9430 o          1 85C      -0.510000
     31 H1          -1.0770     4.6970     1.6190 ha         1 85C       0.116000
     32 H2          -0.4090     1.3940    -1.0370 ha         1 85C       0.142000
     33 H3          -3.1940     3.6800     2.4050 ha         1 85C       0.138000
     34 H4          -3.9740    -3.8270    -0.8570 hn         1 85C       0.330500
     35 H5           2.0610     3.2480     1.3190 hn         1 85C       0.311500
     36 H6          -3.1060     0.0510    -1.3080 h1         1 85C       0.068200
     37 H7          -2.2290    -0.8130    -0.0430 h1         1 85C       0.068200
     38 H8          -5.4970    -0.9860     1.6140 h1         1 85C       0.110700
     39 H9          -7.0010    -1.4760    -0.1160 hc         1 85C       0.070700
     40 H10         -6.5660     0.2050    -0.3430 hc         1 85C       0.070700
     41 H11         -6.5890    -1.1430    -2.5010 hc         1 85C       0.082200
     42 H12         -5.0580    -0.3690    -2.2060 hc         1 85C       0.082200
     43 H13          0.7580     3.7310    -1.2800 h1         1 85C       0.069700
     44 H14          0.7180     4.7840     0.1190 h1         1 85C       0.069700
     45 H15          4.8060    -0.0280     2.0140 ha         1 85C       0.124000
     46 H16          7.0250    -3.4790    -0.6960 hc         1 85C       0.048033
     47 H17          7.4450    -2.5520    -2.1340 hc         1 85C       0.048033
     48 H18          8.3090    -2.2840    -0.6220 hc         1 85C       0.048033
     49 H19          5.9450    -0.8360    -2.6970 ha         1 85C       0.118000
     50 H20          4.3430     0.9030    -2.1520 ha         1 85C       0.147000
     51 H21          3.6150     1.8040     1.3730 hn         1 85C       0.147000
     52 O1          -5.0650     1.3770     2.1740 o          1 85C      -0.534000
@<TRIPOS>BOND
     1     1     2 ar  
     2     1     4 ar  
     3     1    31 1   
     4     2     3 ar  
     5     2    17 1   
     6     3     6 ar  
     7     3    32 1   
     8     4     5 ar  
     9     4    33 1   
    10     5     6 ar  
    11     5    11 1   
    12     6    10 1   
    13     7    10 1   
    14     7    11 1   
    15     7    12 1   
    16     8    15 1   
    17     8    16 1   
    18     8    34 1   
    19     9    17 1   
    20     9    18 1   
    21     9    35 1   
    22    10    36 1   
    23    10    37 1   
    24    11    52 2   
    25    12    13 1   
    26    12    16 1   
    27    12    38 1   
    28    13    14 1   
    29    13    39 1   
    30    13    40 1   
    31    14    15 1   
    32    14    41 1   
    33    14    42 1   
    34    15    30 2   
    35    16    19 2   
    36    17    43 1   
    37    17    44 1   
    38    18    28 1   
    39    18    29 2   
    40    20    21 ar  
    41    20    27 ar  
    42    20    45 1   
    43    21    22 1   
    44    21    23 ar  
    45    23    24 1   
    46    23    25 ar  
    47    24    46 1   
    48    24    47 1   
    49    24    48 1   
    50    25    26 ar  
    51    25    49 1   
    52    26    27 ar  
    53    26    50 1   
    54    27    28 1   
    55    28    51 1   
@<TRIPOS>SUBSTRUCTURE
     1 85C         1 TEMP              0 ****  ****    0 ROOT
