@<TRIPOS>MOLECULE
85D
   26    27     1     0     0
SMALL
abcg2


@<TRIPOS>ATOM
      1 C4           1.8140     1.7500    -0.8180 c6         1 85D      -0.038200
      2 C5           2.4340     0.3670    -1.0140 cy         1 85D      -0.073700
      3 C6           2.4870    -0.4170     0.3290 cy         1 85D      -0.059000
      4 C7           1.3290    -0.6130    -1.4620 cy         1 85D      -0.084400
      5 C8           2.8580     0.3220     1.6050 c3         1 85D      -0.076100
      6 C9           3.3730    -1.6550     0.2330 c3         1 85D      -0.076100
      7 C3           0.5310     1.6410    -0.0480 c2         1 85D      -0.194200
      8 BR1         -2.4860    -0.7150     0.1560 br         1 85D      -0.294000
      9 C2           0.1300     0.4460     0.3920 c2         1 85D      -0.128400
     10 C1           0.9870    -0.7450     0.0400 cy         1 85D      -0.031500
     11 H1           2.5080     2.4230    -0.3020 hc         1 85D       0.052200
     12 H2           1.6230     2.2170    -1.7910 hc         1 85D       0.052200
     13 H3           3.3540     0.4190    -1.6030 hc         1 85D       0.065700
     14 H4           0.5410    -0.2220    -2.1080 hc         1 85D       0.056700
     15 H5           1.7180    -1.5300    -1.9030 hc         1 85D       0.056700
     16 H6           2.2430     1.1990     1.8000 hc         1 85D       0.034867
     17 H7           2.7640    -0.3420     2.4670 hc         1 85D       0.034867
     18 H8           3.8990     0.6500     1.5590 hc         1 85D       0.034867
     19 H9           4.4260    -1.3630     0.2200 hc         1 85D       0.034867
     20 H10          3.2240    -2.3000     1.1010 hc         1 85D       0.034867
     21 H11          3.1960    -2.2600    -0.6560 hc         1 85D       0.034867
     22 H12         -1.5480     1.2200     1.4860 h1         1 85D       0.075700
     23 H13         -0.9300    -0.3410     2.0870 h1         1 85D       0.075700
     24 H14         -0.0420     2.5410     0.1520 ha         1 85D       0.178000
     25 H15          0.5870    -1.6880     0.4170 hc         1 85D       0.076700
     26 C10         -1.0920     0.2730     1.2020 c3         1 85D       0.156800
@<TRIPOS>BOND
     1     1     2 1   
     2     1     7 1   
     3     1    11 1   
     4     1    12 1   
     5     2     3 1   
     6     2     4 1   
     7     2    13 1   
     8     3     5 1   
     9     3     6 1   
    10     3    10 1   
    11     4    10 1   
    12     4    14 1   
    13     4    15 1   
    14     5    16 1   
    15     5    17 1   
    16     5    18 1   
    17     6    19 1   
    18     6    20 1   
    19     6    21 1   
    20     7     9 2   
    21     7    24 1   
    22     8    26 1   
    23     9    10 1   
    24     9    26 1   
    25    10    25 1   
    26    22    26 1   
    27    23    26 1   
@<TRIPOS>SUBSTRUCTURE
     1 85D         1 TEMP              0 ****  ****    0 ROOT
