@<TRIPOS>MOLECULE
85D
   26    27     1     0     0
SMALL
No Charge or Current Charge


@<TRIPOS>ATOM
      1 C4           1.7740     1.8120    -0.8660 c6         1 85D      -0.038200
      2 C5           2.4340     0.3990    -1.0380 cy         1 85D      -0.073700
      3 C6           2.5220    -0.4470     0.3060 cy         1 85D      -0.059000
      4 C7           1.3560    -0.6550    -1.4930 cy         1 85D      -0.084400
      5 C8           2.9090     0.2980     1.6120 c3         1 85D      -0.076100
      6 C9           3.4480    -1.6980     0.2820 c3         1 85D      -0.076100
      7 C3           0.4800     1.6830    -0.0600 c2         1 85D      -0.194200
      8 Br1         -2.6750    -0.4600     0.1180 br         1 85D      -0.294000
      9 C2           0.0750     0.4850     0.4040 c2         1 85D      -0.128400
     10 C1           0.9760    -0.6950     0.0340 cy         1 85D      -0.031500
     11 H1           2.4670     2.5000    -0.3610 hc         1 85D       0.052200
     12 H2           1.5560     2.2480    -1.8500 hc         1 85D       0.052200
     13 H3           3.3470     0.4550    -1.6410 hc         1 85D       0.065700
     14 H4           0.5770    -0.2860    -2.1690 hc         1 85D       0.056700
     15 H5           1.7430    -1.5870    -1.9170 hc         1 85D       0.056700
     16 H6           2.3180     1.2030     1.7860 hc         1 85D       0.034867
     17 H7           2.7650    -0.3430     2.4900 hc         1 85D       0.034867
     18 H8           3.9620     0.6050     1.5940 hc         1 85D       0.034867
     19 H9           4.5050    -1.4050     0.2830 hc         1 85D       0.034867
     20 H10          3.2790    -2.3300     1.1630 hc         1 85D       0.034867
     21 H11          3.2990    -2.3360    -0.5950 hc         1 85D       0.034867
     22 H12         -1.5290     1.1620     1.6950 h1         1 85D       0.075700
     23 H13         -0.9850    -0.5100     2.0100 h1         1 85D       0.075700
     24 H14         -0.0860     2.5960     0.1340 ha         1 85D       0.178000
     25 H15          0.5830    -1.6540     0.3910 hc         1 85D       0.076700
     26 C10         -1.1730     0.2360     1.2270 c3         1 85D       0.156800
@<TRIPOS>BOND
     1     1     2 1   
     2     1     7 1   
     3     1    11 1   
     4     1    12 1   
     5     2     3 1   
     6     2     4 1   
     7     2    13 1   
     8     3     5 1   
     9     3     6 1   
    10     3    10 1   
    11     4    10 1   
    12     4    14 1   
    13     4    15 1   
    14     5    16 1   
    15     5    17 1   
    16     5    18 1   
    17     6    19 1   
    18     6    20 1   
    19     6    21 1   
    20     7     9 2   
    21     7    24 1   
    22     8    26 1   
    23     9    10 1   
    24     9    26 1   
    25    10    25 1   
    26    22    26 1   
    27    23    26 1   
@<TRIPOS>SUBSTRUCTURE
     1 85D         1 TEMP              0 ****  ****    0 ROOT
