@<TRIPOS>MOLECULE
85E
   50    54     1     0     0
SMALL
bcc


@<TRIPOS>ATOM
      1 N1         -32.5620   -50.1590    -9.6890 na         1 85E       0.148400
      2 N12        -33.6170   -49.4680   -10.0970 nc         1 85E      -0.491800
      3 C13        -26.3550   -51.2610    -7.8860 ca         1 85E      -0.120000
      4 C15        -26.0920   -52.5470    -9.9050 ca         1 85E      -0.106000
      5 C17        -28.1060   -51.2620    -9.5880 ca         1 85E      -0.031000
      6 N          -30.2990   -51.5300   -12.3070 n1         1 85E      -0.322800
      7 C          -29.6160   -49.5270    -8.0060 ca         1 85E       0.141900
      8 O          -27.3830   -43.5390   -11.3640 o          1 85E      -0.559500
      9 C1         -28.4040   -49.9420    -7.5480 ca         1 85E      -0.137000
     10 F          -30.3680   -48.7130    -7.2610 f          1 85E      -0.130900
     11 C12        -27.6220   -50.8160    -8.3320 ca         1 85E      -0.012000
     12 C14        -25.6080   -52.1060    -8.6570 ca         1 85E      -0.097000
     13 C16        -27.3130   -52.1360   -10.3640 ca         1 85E      -0.111000
     14 C18        -29.3770   -50.7930   -10.0150 ca         1 85E       0.050000
     15 C19        -29.8890   -51.1990   -11.2830 cg         1 85E       0.210800
     16 C1A        -30.1360   -49.9310    -9.2470 ca         1 85E      -0.055000
     17 C1B        -31.4360   -49.4190    -9.6910 cc         1 85E      -0.015300
     18 C1C        -32.7080   -51.5560    -9.3430 c3         1 85E       0.031600
     19 C1D        -33.1750   -48.2540   -10.3530 cd         1 85E       0.320200
     20 C1E        -31.7910   -48.1500   -10.1180 cd         1 85E      -0.245300
     21 C1F        -30.9420   -46.9770   -10.2990 ca         1 85E       0.084000
     22 C1G        -29.6220   -47.0970   -10.7620 ca         1 85E      -0.107000
     23 C1H        -28.8370   -45.9840   -10.9650 ca         1 85E      -0.052000
     24 C1I        -31.4480   -45.7090   -10.0440 ca         1 85E      -0.133000
     25 C1K        -31.1350   -43.2300   -10.0090 cc         1 85E       0.330900
     26 C1L        -30.6640   -44.5730   -10.2520 ca         1 85E      -0.128900
     27 C1M        -32.5240   -42.9920    -9.4980 c3         1 85E       0.116500
     28 C1N        -29.3510   -44.7130   -10.7170 ca         1 85E      -0.145600
     29 C1O        -28.5300   -43.5260   -10.9520 c          1 85E       0.704100
     30 N13        -32.7910   -41.5490    -9.3250 nz         1 85E      -0.823600
     31 N14        -30.4100   -42.1950   -10.2140 nd         1 85E      -0.476300
     32 N15        -29.1690   -42.3500   -10.6680 ns         1 85E      -0.288900
     33 H1         -25.9890   -50.9190    -6.9260 ha         1 85E       0.145000
     34 H123       -25.4900   -53.2170   -10.5060 ha         1 85E       0.148000
     35 H          -28.0410   -49.6080    -6.5830 ha         1 85E       0.163000
     36 H12        -24.6390   -52.4410    -8.3110 ha         1 85E       0.148000
     37 H124       -27.6710   -52.4830   -11.3240 ha         1 85E       0.150000
     38 H3         -33.6430   -51.6900    -8.8070 h1         1 85E       0.071367
     39 H11        -32.7130   -52.1760   -10.2380 h1         1 85E       0.071367
     40 H2         -31.8880   -51.8640    -8.7000 h1         1 85E       0.071367
     41 H125       -33.8460   -47.4890   -10.7160 h4         1 85E       0.036100
     42 H126       -29.2150   -48.0720   -10.9940 ha         1 85E       0.160000
     43 H127       -27.8250   -46.0950   -11.3310 ha         1 85E       0.173000
     44 H128       -32.4600   -45.6140    -9.6700 ha         1 85E       0.129000
     45 H112       -33.2720   -43.3800   -10.1890 hx         1 85E       0.115200
     46 H21        -32.6790   -43.4690    -8.5310 hx         1 85E       0.115200
     47 H212       -33.7360   -41.4010    -8.9670 hn         1 85E       0.463467
     48 H31        -32.1450   -41.1140    -8.6660 hn         1 85E       0.463467
     49 H113       -32.7140   -41.0330   -10.2030 hn         1 85E       0.463467
     50 H129       -28.6630   -41.4850   -10.8070 hn         1 85E       0.367500
@<TRIPOS>BOND
     1     1     2 1   
     2     1    17 1   
     3     1    18 1   
     4     2    19 2   
     5     3    11 ar  
     6     3    12 ar  
     7     3    33 1   
     8     4    12 ar  
     9     4    13 ar  
    10     4    34 1   
    11     5    11 ar  
    12     5    13 ar  
    13     5    14 ar  
    14     6    15 3   
    15     7     9 ar  
    16     7    10 1   
    17     7    16 ar  
    18     8    29 2   
    19     9    11 ar  
    20     9    35 1   
    21    12    36 1   
    22    13    37 1   
    23    14    15 1   
    24    14    16 ar  
    25    16    17 1   
    26    17    20 2   
    27    18    38 1   
    28    18    39 1   
    29    18    40 1   
    30    19    20 1   
    31    19    41 1   
    32    20    21 1   
    33    21    22 ar  
    34    21    24 ar  
    35    22    23 ar  
    36    22    42 1   
    37    23    28 ar  
    38    23    43 1   
    39    24    26 ar  
    40    24    44 1   
    41    25    26 1   
    42    25    27 1   
    43    25    31 2   
    44    26    28 ar  
    45    27    30 1   
    46    27    45 1   
    47    27    46 1   
    48    28    29 1   
    49    29    32 1   
    50    30    47 1   
    51    30    48 1   
    52    30    49 1   
    53    31    32 1   
    54    32    50 1   
@<TRIPOS>SUBSTRUCTURE
     1 85E         1 TEMP              0 ****  ****    0 ROOT
