@<TRIPOS>MOLECULE
85E
   50    54     1     0     0
SMALL
No Charge or Current Charge


@<TRIPOS>ATOM
      1 N1         -32.6180   -50.1240    -9.4900 na         1 85E       0.169800
      2 N12        -33.6950   -49.3140    -9.7630 nc         1 85E      -0.491800
      3 C13        -26.2460   -51.4360    -8.1520 ca         1 85E      -0.102000
      4 C15        -26.1010   -52.6640   -10.2410 ca         1 85E      -0.088000
      5 C17        -28.1030   -51.3320    -9.7520 ca         1 85E      -0.031000
      6 N          -30.5200   -51.4590   -12.3670 n1         1 85E      -0.412000
      7 C          -29.4750   -49.6220    -7.9780 ca         1 85E       0.177000
      8 O          -27.1640   -43.4530   -10.7500 o          1 85E      -0.484000
      9 C1         -28.2090   -50.1080    -7.6370 ca         1 85E      -0.119000
     10 F          -30.1200   -48.8090    -7.1100 f          1 85E      -0.166000
     11 C12        -27.5200   -50.9590    -8.5150 ca         1 85E      -0.012000
     12 C14        -25.5370   -52.2870    -9.0130 ca         1 85E      -0.079000
     13 C16        -27.3720   -52.1930   -10.6110 ca         1 85E      -0.093000
     14 C18        -29.3920   -50.8350   -10.0950 ca         1 85E       0.050000
     15 C19        -30.0100   -51.1770   -11.3550 cg         1 85E       0.300000
     16 C1A        -30.0780   -49.9730    -9.2020 ca         1 85E      -0.055000
     17 C1B        -31.4060   -49.4430    -9.5200 cc         1 85E      -0.066000
     18 C1C        -32.8220   -51.5490    -9.1950 c3         1 85E       0.060900
     19 C1D        -33.1310   -48.1330    -9.9420 cd         1 85E       0.254900
     20 C1E        -31.7180   -48.1310    -9.7900 cd         1 85E      -0.180000
     21 C1F        -30.8340   -46.9530    -9.9890 ca         1 85E       0.084000
     22 C1G        -29.4450   -47.0720   -10.2120 ca         1 85E      -0.089000
     23 C1H        -28.6450   -45.9340   -10.3960 ca         1 85E      -0.034000
     24 C1I        -31.3970   -45.6570    -9.9750 ca         1 85E      -0.115000
     25 C1K        -31.1990   -43.1420   -10.1320 cc         1 85E       0.330900
     26 C1L        -30.6060   -44.4990   -10.1580 ca         1 85E      -0.128900
     27 C1M        -32.6900   -42.9280    -9.9100 c3         1 85E       0.088300
     28 C1N        -29.2170   -44.6500   -10.3670 ca         1 85E      -0.145600
     29 C1O        -28.3730   -43.4230   -10.5610 c          1 85E       0.561600
     30 N13        -33.2110   -41.4890    -9.9130 nz         1 85E      -0.961000
     31 N14        -30.4400   -42.0540   -10.3050 nd         1 85E      -0.476300
     32 N15        -29.0830   -42.2390   -10.5080 ns         1 85E      -0.221900
     33 H1         -25.8020   -51.1470    -7.2020 ha         1 85E       0.127000
     34 H123       -25.5510   -53.3250   -10.9080 ha         1 85E       0.130000
     35 H          -27.7670   -49.8210    -6.6870 ha         1 85E       0.145000
     36 H12        -24.5520   -52.6530    -8.7300 ha         1 85E       0.130000
     37 H124       -27.7710   -52.5120   -11.5710 ha         1 85E       0.132000
     38 H3         -33.7930   -51.6920    -8.7060 h1         1 85E       0.071367
     39 H11        -32.7980   -52.1210   -10.1300 h1         1 85E       0.071367
     40 H2         -32.0280   -51.9070    -8.5290 h1         1 85E       0.071367
     41 H125       -33.7720   -47.2980   -10.1930 h4         1 85E       0.036100
     42 H126       -28.9650   -48.0390   -10.2780 ha         1 85E       0.142000
     43 H127       -27.5770   -46.0570   -10.5690 ha         1 85E       0.155000
     44 H128       -32.4630   -45.5510    -9.8000 ha         1 85E       0.111000
     45 H112       -33.2250   -43.4850   -10.6850 hx         1 85E       0.115200
     46 H21        -32.9510   -43.3830    -8.9490 hx         1 85E       0.115200
     47 H212       -34.2280   -41.4090    -9.7560 hn         1 85E       0.518667
     48 H31        -32.7630   -40.9030    -9.1900 hn         1 85E       0.518667
     49 H113       -33.0200   -40.9990   -10.8010 hn         1 85E       0.518667
     50 H129       -28.5070   -41.4100   -10.6400 hn         1 85E       0.367500
@<TRIPOS>BOND
     1     1     2 1   
     2     1    17 1   
     3     1    18 1   
     4     2    19 2   
     5     3    11 ar  
     6     3    12 ar  
     7     3    33 1   
     8     4    12 ar  
     9     4    13 ar  
    10     4    34 1   
    11     5    11 ar  
    12     5    13 ar  
    13     5    14 ar  
    14     6    15 3   
    15     7     9 ar  
    16     7    10 1   
    17     7    16 ar  
    18     8    29 2   
    19     9    11 ar  
    20     9    35 1   
    21    12    36 1   
    22    13    37 1   
    23    14    15 1   
    24    14    16 ar  
    25    16    17 1   
    26    17    20 2   
    27    18    38 1   
    28    18    39 1   
    29    18    40 1   
    30    19    20 1   
    31    19    41 1   
    32    20    21 1   
    33    21    22 ar  
    34    21    24 ar  
    35    22    23 ar  
    36    22    42 1   
    37    23    28 ar  
    38    23    43 1   
    39    24    26 ar  
    40    24    44 1   
    41    25    26 1   
    42    25    27 1   
    43    25    31 2   
    44    26    28 ar  
    45    27    30 1   
    46    27    45 1   
    47    27    46 1   
    48    28    29 1   
    49    29    32 1   
    50    30    47 1   
    51    30    48 1   
    52    30    49 1   
    53    31    32 1   
    54    32    50 1   
@<TRIPOS>SUBSTRUCTURE
     1 85E         1 TEMP              0 ****  ****    0 ROOT
