@<TRIPOS>MOLECULE
85F
   23    22     1     0     0
SMALL
bcc


@<TRIPOS>ATOM
      1 N           27.3660    54.0180    46.3410 n8         1 85F      -0.869300
      2 CA          27.8550    55.2140    47.0100 c3         1 85F       0.017000
      3 CB          27.8710    55.0170    48.5190 c3         1 85F       0.081200
      4 SG          26.2030    54.6180    49.1260 ss         1 85F      -0.483200
      5 CD          26.3950    54.9640    50.8980 c3         1 85F       0.081200
      6 CE          27.4590    54.1450    51.6240 c3         1 85F       0.017000
      7 NZ2         27.2540    52.7240    51.4070 n8         1 85F      -0.869300
      8 CZ1         27.5250    54.6020    53.1120 c          1 85F       0.918100
      9 OH1         27.4180    53.7220    53.9860 o          1 85F      -0.847300
     10 OH2         27.7050    55.8240    53.2950 o          1 85F      -0.847300
     11 C           29.2670    55.6000    46.4800 c          1 85F       0.918100
     12 O           29.5670    55.1770    45.3460 o          1 85F      -0.847300
     13 OXT         29.9570    56.3310    47.2140 o          1 85F      -0.847300
     14 H1          26.3560    54.0320    46.2860 hn         1 85F       0.319050
     15 H2          27.7100    54.0420    45.3900 hn         1 85F       0.319050
     16 H4          27.2170    56.0910    46.8050 h1         1 85F       0.029200
     17 H5          28.5560    54.2080    48.7850 h1         1 85F       0.060950
     18 H6          28.2040    55.9280    49.0150 h1         1 85F       0.060950
     19 H7          26.6010    56.0260    51.0290 h1         1 85F       0.060950
     20 H8          25.4090    54.7700    51.3310 h1         1 85F       0.060950
     21 H9          28.4320    54.4060    51.1880 h1         1 85F       0.029200
     22 H10         27.8890    52.2220    52.0170 hn         1 85F       0.319050
     23 H11         26.3330    52.4760    51.7520 hn         1 85F       0.319050
@<TRIPOS>BOND
     1     1     2 1   
     2     1    14 1   
     3     1    15 1   
     4     2     3 1   
     5     2    11 1   
     6     2    16 1   
     7     3     4 1   
     8     3    17 1   
     9     3    18 1   
    10     4     5 1   
    11     5     6 1   
    12     5    19 1   
    13     5    20 1   
    14     6     7 1   
    15     6     8 1   
    16     6    21 1   
    17     7    22 1   
    18     7    23 1   
    19     8     9 1   
    20     8    10 1   
    21    11    12 1   
    22    11    13 1   
@<TRIPOS>SUBSTRUCTURE
     1 85F         1 TEMP              0 ****  ****    0 ROOT
