@<TRIPOS>MOLECULE
85G
   25    24     1     0     0
SMALL
bcc


@<TRIPOS>ATOM
      1 N           28.5860    66.6800    35.4190 n8         1 85G      -0.906800
      2 CA          30.0290    66.7220    35.6080 c3         1 85G       0.017500
      3 C           30.5490    65.3950    36.2250 c          1 85G       0.927600
      4 O           31.7280    65.3980    36.6290 o          1 85G      -0.832800
      5 CB          30.4270    67.9240    36.4640 c3         1 85G      -0.039400
      6 CG          29.9660    69.2470    35.8570 c3         1 85G      -0.157400
      7 CD          30.3960    70.4230    36.7040 c          1 85G       0.666100
      8 OE1         31.5790    70.6920    36.8840 o          1 85G      -0.622100
      9 CK          29.8310    71.8090    39.5980 c3         1 85G      -0.115100
     10 CY          29.6110    72.2470    38.1570 c3         1 85G       0.108000
     11 NM          29.3980    71.1390    37.2500 ns         1 85G      -0.585900
     12 H3          28.3260    67.1360    34.5550 hn         1 85G       0.329800
     13 H2          28.3220    65.7060    35.3310 hn         1 85G       0.329800
     14 H4          30.5590    66.8280    34.6450 h1         1 85G       0.001700
     15 H6          29.9900    67.8130    37.4620 hc         1 85G       0.056200
     16 H7          31.5090    67.9380    36.5880 hc         1 85G       0.056200
     17 H8          30.4100    69.3680    34.8640 hc         1 85G       0.048200
     18 H9          28.8830    69.2360    35.7230 hc         1 85G       0.048200
     19 H10         29.9700    72.6780    40.2420 hc         1 85G       0.038700
     20 H11         28.9750    71.2480    39.9730 hc         1 85G       0.038700
     21 H12         30.7170    71.1800    39.6860 hc         1 85G       0.038700
     22 H13         30.4620    72.8300    37.8050 h1         1 85G       0.038200
     23 H14         28.7370    72.8940    38.0910 h1         1 85G       0.038200
     24 H15         28.4510    70.8290    37.1070 hn         1 85G       0.310500
     25 O1          29.7580    64.4310    36.2400 o          1 85G      -0.832800
@<TRIPOS>BOND
     1     1     2 1   
     2     1    12 1   
     3     1    13 1   
     4     2     3 1   
     5     2     5 1   
     6     2    14 1   
     7     3     4 1   
     8     3    25 1   
     9     5     6 1   
    10     5    15 1   
    11     5    16 1   
    12     6     7 1   
    13     6    17 1   
    14     6    18 1   
    15     7     8 2   
    16     7    11 1   
    17     9    10 1   
    18     9    19 1   
    19     9    20 1   
    20     9    21 1   
    21    10    11 1   
    22    10    22 1   
    23    10    23 1   
    24    11    24 1   
@<TRIPOS>SUBSTRUCTURE
     1 85G         1 TEMP              0 ****  ****    0 ROOT
