@<TRIPOS>MOLECULE
85H
   63    67     1     0     0
SMALL
abcg2


@<TRIPOS>ATOM
      1 N1          -5.6420     9.2440    13.7630 na         1 85H       0.019300
      2 C7          -3.7370    13.3680    13.4880 ca         1 85H      -0.148800
      3 C8          -4.2160    14.6110    13.8760 ca         1 85H      -0.080500
      4 C9          -3.4560    15.4400    14.6920 ca         1 85H      -0.096750
      5 C1          -6.7280    13.9920     9.9580 ca         1 85H      -0.096750
      6 C5          -8.0480    13.7250    11.9600 ca         1 85H      -0.096750
      7 C6          -4.5270    12.4230    12.6100 c3         1 85H       0.192900
      8 C4          -6.9520    13.1730    12.6020 ca         1 85H      -0.080500
      9 C3          -5.7400    13.0210    11.9360 ca         1 85H      -0.148800
     10 C2          -5.6410    13.4320    10.6130 ca         1 85H      -0.080500
     11 C10         -2.2110    15.0130    15.1180 ca         1 85H       0.142500
     12 C11         -1.7090    13.7760    14.7370 ca         1 85H      -0.096750
     13 C12         -2.4760    12.9640    13.9220 ca         1 85H      -0.080500
     14 C           -7.9240    14.1340    10.6420 ca         1 85H       0.142500
     15 CL          -9.2900    14.8230     9.8350 cl         1 85H      -0.156000
     16 N           -4.9210    11.2350    13.3860 na         1 85H       0.060000
     17 C13         -5.2480    11.1770    14.7190 cc         1 85H      -0.152000
     18 C14         -5.7050     9.9250    14.9530 cd         1 85H      -0.162000
     19 C30         -5.1680    10.0580    12.8310 cc         1 85H      -0.046300
     20 C15         -6.1720     7.9140    13.5140 c3         1 85H       0.060600
     21 C16         -7.5650     8.0040    12.8830 c3         1 85H       0.211600
     22 C24         -8.5380     8.7100    13.8040 ca         1 85H      -0.153300
     23 C25         -8.7890    10.0690    13.6440 ca         1 85H      -0.085000
     24 C26         -9.6260    10.7650    14.4990 ca         1 85H      -0.107000
     25 C27        -10.2280    10.0870    15.5450 ca         1 85H       0.140000
     26 CL4        -11.2700    10.9360    16.6310 cl         1 85H      -0.152000
     27 C28        -10.0090     8.7330    15.7400 ca         1 85H      -0.091000
     28 C29         -9.1660     8.0660    14.8650 ca         1 85H       0.132000
     29 CL5         -8.8960     6.3750    15.1380 cl         1 85H      -0.180000
     30 O           -7.4010     8.6970    11.6800 os         1 85H      -0.490000
     31 C17         -8.4240     8.4950    10.7170 c3         1 85H       0.210900
     32 C18         -8.1250     9.4180     9.5740 ca         1 85H      -0.100300
     33 C19         -7.0810     9.0960     8.7100 ca         1 85H      -0.081000
     34 C20         -6.7000     9.9260     7.6710 ca         1 85H      -0.106000
     35 C21         -7.3890    11.1140     7.4860 ca         1 85H       0.134000
     36 CL2         -6.9310    12.1800     6.2040 cl         1 85H      -0.167000
     37 C22         -8.4360    11.4730     8.3150 ca         1 85H      -0.103000
     38 C23         -8.7850    10.6240     9.3550 ca         1 85H       0.144000
     39 CL3        -10.0880    11.1270    10.3810 cl         1 85H      -0.184000
     40 H1          -5.1850    14.9620    13.5470 ha         1 85H       0.123250
     41 H2          -3.8390    16.4070    14.9880 ha         1 85H       0.147000
     42 H3          -6.6420    14.2960     8.9240 ha         1 85H       0.147000
     43 H4          -8.9870    13.8320    12.4860 ha         1 85H       0.147000
     44 H5          -3.8560    12.0520    11.8320 h1         1 85H       0.090700
     45 H6          -7.0680    12.8660    13.6340 ha         1 85H       0.123250
     46 H7          -4.7090    13.3110    10.0750 ha         1 85H       0.123250
     47 H8          -0.7310    13.4520    15.0670 ha         1 85H       0.147000
     48 H9          -2.0810    12.0000    13.6210 ha         1 85H       0.123250
     49 H10         -5.1330    12.0150    15.3850 h4         1 85H       0.210000
     50 H11         -6.0610     9.4650    15.8590 h4         1 85H       0.205000
     51 H12         -5.0030     9.8100    11.7960 h5         1 85H       0.233000
     52 H13         -6.2050     7.3790    14.4610 h1         1 85H       0.101700
     53 H14         -5.4930     7.3830    12.8480 h1         1 85H       0.101700
     54 H15         -7.8950     6.9720    12.7050 h1         1 85H       0.090700
     55 H16         -8.3280    10.6060    12.8260 ha         1 85H       0.132000
     56 H17         -9.8000    11.8220    14.3480 ha         1 85H       0.140000
     57 H18        -10.4820     8.2050    16.5560 ha         1 85H       0.161000
     58 H19         -9.4130     8.6850    11.1410 h1         1 85H       0.060200
     59 H20         -8.4080     7.4550    10.3710 h1         1 85H       0.060200
     60 H21         -6.5500     8.1630     8.8550 ha         1 85H       0.123000
     61 H22         -5.8840     9.6490     7.0180 ha         1 85H       0.144000
     62 H23         -8.9690    12.4010     8.1600 ha         1 85H       0.156000
     63 CL1         -1.2600    16.0380    16.1350 cl         1 85H      -0.156000
@<TRIPOS>BOND
     1     1    18 1   
     2     1    19 2   
     3     1    20 1   
     4     2     3 ar  
     5     2     7 1   
     6     2    13 ar  
     7     3     4 ar  
     8     3    40 1   
     9     4    11 ar  
    10     4    41 1   
    11     5    10 ar  
    12     5    14 ar  
    13     5    42 1   
    14     6     8 ar  
    15     6    14 ar  
    16     6    43 1   
    17     7     9 1   
    18     7    16 1   
    19     7    44 1   
    20     8     9 ar  
    21     8    45 1   
    22     9    10 ar  
    23    10    46 1   
    24    11    12 ar  
    25    11    63 1   
    26    12    13 ar  
    27    12    47 1   
    28    13    48 1   
    29    14    15 1   
    30    16    17 1   
    31    16    19 1   
    32    17    18 2   
    33    17    49 1   
    34    18    50 1   
    35    19    51 1   
    36    20    21 1   
    37    20    52 1   
    38    20    53 1   
    39    21    22 1   
    40    21    30 1   
    41    21    54 1   
    42    22    23 ar  
    43    22    28 ar  
    44    23    24 ar  
    45    23    55 1   
    46    24    25 ar  
    47    24    56 1   
    48    25    26 1   
    49    25    27 ar  
    50    27    28 ar  
    51    27    57 1   
    52    28    29 1   
    53    30    31 1   
    54    31    32 1   
    55    31    58 1   
    56    31    59 1   
    57    32    33 ar  
    58    32    38 ar  
    59    33    34 ar  
    60    33    60 1   
    61    34    35 ar  
    62    34    61 1   
    63    35    36 1   
    64    35    37 ar  
    65    37    38 ar  
    66    37    62 1   
    67    38    39 1   
@<TRIPOS>SUBSTRUCTURE
     1 85H         1 TEMP              0 ****  ****    0 ROOT
