@<TRIPOS>MOLECULE
85H
   63    67     1     0     0
SMALL
No Charge or Current Charge


@<TRIPOS>ATOM
      1 N1          -5.6470     9.2250    13.9640 na         1 85H       0.019300
      2 C7          -3.5980    13.3570    13.3770 ca         1 85H      -0.148800
      3 C8          -4.1580    14.4940    14.0000 ca         1 85H      -0.080500
      4 C9          -3.3420    15.3820    14.7220 ca         1 85H      -0.096750
      5 C1          -6.3390    14.3200     9.8600 ca         1 85H      -0.096750
      6 C5          -7.9490    13.7260    11.5810 ca         1 85H      -0.096750
      7 C6          -4.4690    12.3700    12.5920 c3         1 85H       0.192900
      8 C4          -6.9320    13.0900    12.3150 ca         1 85H      -0.080500
      9 C3          -5.6070    13.0590    11.8230 ca         1 85H      -0.148800
     10 C2          -5.3210    13.6810    10.5890 ca         1 85H      -0.080500
     11 C10         -1.9640    15.1400    14.8300 ca         1 85H       0.142500
     12 C11         -1.3990    14.0100    14.2190 ca         1 85H      -0.096750
     13 C12         -2.2130    13.1210    13.4950 ca         1 85H      -0.080500
     14 C           -7.6500    14.3430    10.3570 ca         1 85H       0.142500
     15 Cl          -8.9190    15.1550     9.4490 cl         1 85H      -0.156000
     16 N           -4.9120    11.2260    13.4120 na         1 85H       0.060000
     17 C13         -5.2970    11.2580    14.7580 cc         1 85H      -0.152000
     18 C14         -5.7580     9.9990    15.0970 cd         1 85H      -0.162000
     19 C30         -5.0810     9.9390    12.9440 cc         1 85H      -0.046300
     20 C15         -6.1720     7.8530    13.8340 c3         1 85H       0.060600
     21 C16         -7.5180     7.7820    13.0710 c3         1 85H       0.211600
     22 C24         -8.6390     8.5010    13.8400 ca         1 85H      -0.153300
     23 C25         -8.8370     9.8920    13.6750 ca         1 85H      -0.085000
     24 C26         -9.8490    10.5610    14.3810 ca         1 85H      -0.107000
     25 C27        -10.6720     9.8510    15.2660 ca         1 85H       0.140000
     26 Cl4        -11.9400    10.6900    16.1500 cl         1 85H      -0.152000
     27 C28        -10.4810     8.4740    15.4500 ca         1 85H      -0.091000
     28 C29         -9.4700     7.8000    14.7460 ca         1 85H       0.132000
     29 Cl5         -9.2600     6.0740    15.0380 cl         1 85H      -0.180000
     30 O           -7.3110     8.4160    11.7920 os         1 85H      -0.490000
     31 C17         -8.3730     8.3010    10.8280 c3         1 85H       0.210900
     32 C18         -8.1450     9.3960     9.7900 ca         1 85H      -0.100300
     33 C19         -7.0050     9.3170     8.9630 ca         1 85H      -0.081000
     34 C20         -6.7350    10.3220     8.0190 ca         1 85H      -0.106000
     35 C21         -7.6070    11.4130     7.8890 ca         1 85H       0.134000
     36 Cl2         -7.2720    12.6720     6.7090 cl         1 85H      -0.167000
     37 C22         -8.7460    11.5000     8.7010 ca         1 85H      -0.103000
     38 C23         -9.0150    10.5050     9.6550 ca         1 85H       0.144000
     39 Cl3        -10.4510    10.6970    10.6610 cl         1 85H      -0.184000
     40 H1          -5.2250    14.6960    13.9300 ha         1 85H       0.123250
     41 H2          -3.7760    16.2570    15.1990 ha         1 85H       0.147000
     42 H3          -6.1110    14.7990     8.9120 ha         1 85H       0.147000
     43 H4          -8.9660    13.7490    11.9640 ha         1 85H       0.147000
     44 H5          -3.8160    11.9340    11.8250 h1         1 85H       0.090700
     45 H6          -7.1840    12.6360    13.2700 ha         1 85H       0.123250
     46 H7          -4.3070    13.6730    10.1950 ha         1 85H       0.123250
     47 H8          -0.3310    13.8240    14.3060 ha         1 85H       0.147000
     48 H9          -1.7630    12.2460    13.0290 ha         1 85H       0.123250
     49 H10         -5.2370    12.1630    15.3520 h4         1 85H       0.210000
     50 H11         -6.1710     9.6270    16.0300 h4         1 85H       0.205000
     51 H12         -4.9370     9.5990    11.9250 h5         1 85H       0.233000
     52 H13         -6.3010     7.4210    14.8330 h1         1 85H       0.101700
     53 H14         -5.4300     7.2450    13.3030 h1         1 85H       0.101700
     54 H15         -7.7760     6.7250    12.9220 h1         1 85H       0.090700
     55 H16         -8.2060    10.4580    12.9930 ha         1 85H       0.132000
     56 H17         -9.9960    11.6290    14.2420 ha         1 85H       0.140000
     57 H18        -11.1160     7.9290    16.1430 ha         1 85H       0.161000
     58 H19         -9.3570     8.4050    11.3000 h1         1 85H       0.060200
     59 H20         -8.3460     7.3180    10.3410 h1         1 85H       0.060200
     60 H21         -6.3200     8.4770     9.0620 ha         1 85H       0.123000
     61 H22         -5.8510    10.2570     7.3890 ha         1 85H       0.144000
     62 H23         -9.4220    12.3430     8.5950 ha         1 85H       0.156000
     63 Cl1         -0.9440    16.2510    15.7360 cl         1 85H      -0.156000
@<TRIPOS>BOND
     1     1    18 1   
     2     1    19 2   
     3     1    20 1   
     4     2     3 ar  
     5     2     7 1   
     6     2    13 ar  
     7     3     4 ar  
     8     3    40 1   
     9     4    11 ar  
    10     4    41 1   
    11     5    10 ar  
    12     5    14 ar  
    13     5    42 1   
    14     6     8 ar  
    15     6    14 ar  
    16     6    43 1   
    17     7     9 1   
    18     7    16 1   
    19     7    44 1   
    20     8     9 ar  
    21     8    45 1   
    22     9    10 ar  
    23    10    46 1   
    24    11    12 ar  
    25    11    63 1   
    26    12    13 ar  
    27    12    47 1   
    28    13    48 1   
    29    14    15 1   
    30    16    17 1   
    31    16    19 1   
    32    17    18 2   
    33    17    49 1   
    34    18    50 1   
    35    19    51 1   
    36    20    21 1   
    37    20    52 1   
    38    20    53 1   
    39    21    22 1   
    40    21    30 1   
    41    21    54 1   
    42    22    23 ar  
    43    22    28 ar  
    44    23    24 ar  
    45    23    55 1   
    46    24    25 ar  
    47    24    56 1   
    48    25    26 1   
    49    25    27 ar  
    50    27    28 ar  
    51    27    57 1   
    52    28    29 1   
    53    30    31 1   
    54    31    32 1   
    55    31    58 1   
    56    31    59 1   
    57    32    33 ar  
    58    32    38 ar  
    59    33    34 ar  
    60    33    60 1   
    61    34    35 ar  
    62    34    61 1   
    63    35    36 1   
    64    35    37 ar  
    65    37    38 ar  
    66    37    62 1   
    67    38    39 1   
@<TRIPOS>SUBSTRUCTURE
     1 85H         1 TEMP              0 ****  ****    0 ROOT
