@<TRIPOS>MOLECULE
85J
   28    27     1     0     0
SMALL
bcc


@<TRIPOS>ATOM
      1 N           23.1800    71.9360    42.9050 n8         1 85J      -0.899800
      2 CA          24.4880    71.4000    43.2510 c3         1 85J       0.020500
      3 C           24.4430    69.8520    43.3520 c          1 85J       0.929600
      4 O           25.3980    69.3050    43.9380 o          1 85J      -0.837300
      5 CB          24.9980    72.0370    44.5430 c3         1 85J      -0.041400
      6 CG          25.0360    73.5700    44.5070 c3         1 85J      -0.165400
      7 CD          25.8450    74.0930    43.3390 c          1 85J       0.674100
      8 OE1         25.3250    74.6080    42.3560 o          1 85J      -0.630100
      9 NE2         27.1750    73.9240    43.4550 ns         1 85J      -0.577900
     10 CZ          28.1180    74.1830    42.3900 c3         1 85J       0.107000
     11 CT          28.3280    72.9850    41.4700 c3         1 85J      -0.107400
     12 CI          29.3420    73.2820    40.3740 c3         1 85J      -0.084100
     13 O1          23.4820    69.2790    42.8020 o          1 85J      -0.837300
     14 H17         23.2860    72.8100    42.4050 hn         1 85J       0.335800
     15 H2          22.7360    71.2840    42.2720 hn         1 85J       0.335800
     16 H4          25.2370    71.6040    42.4630 h1         1 85J      -0.001300
     17 H5          24.3520    71.7390    45.3730 hc         1 85J       0.046200
     18 H6          25.9920    71.6480    44.7670 hc         1 85J       0.046200
     19 H7          25.4590    73.9380    45.4460 hc         1 85J       0.050700
     20 H8          24.0260    73.9700    44.4290 hc         1 85J       0.050700
     21 H9          27.5220    73.4510    44.2740 hn         1 85J       0.311500
     22 H10         29.0680    74.4710    42.8460 h1         1 85J       0.039200
     23 H11         27.7720    75.0430    41.8160 h1         1 85J       0.039200
     24 H12         27.3700    72.7020    41.0260 hc         1 85J       0.059700
     25 H13         28.6620    72.1300    42.0630 hc         1 85J       0.059700
     26 H14         29.4820    72.4200    39.7220 hc         1 85J       0.025033
     27 H15         29.0180    74.1180    39.7520 hc         1 85J       0.025033
     28 H16         30.3160    73.5390    40.7940 hc         1 85J       0.025033
@<TRIPOS>BOND
     1     1     2 1   
     2     1    14 1   
     3     1    15 1   
     4     2     3 1   
     5     2     5 1   
     6     2    16 1   
     7     3     4 1   
     8     3    13 1   
     9     5     6 1   
    10     5    17 1   
    11     5    18 1   
    12     6     7 1   
    13     6    19 1   
    14     6    20 1   
    15     7     8 2   
    16     7     9 1   
    17     9    10 1   
    18     9    21 1   
    19    10    11 1   
    20    10    22 1   
    21    10    23 1   
    22    11    12 1   
    23    11    24 1   
    24    11    25 1   
    25    12    26 1   
    26    12    27 1   
    27    12    28 1   
@<TRIPOS>SUBSTRUCTURE
     1 85J         1 TEMP              0 ****  ****    0 ROOT
