@<TRIPOS>MOLECULE
85K
   52    56     1     0     0
SMALL
bcc


@<TRIPOS>ATOM
      1 N1         -33.2940   -49.4310   -10.1720 nc         1 85K      -0.490800
      2 N12        -33.0440   -41.4870    -8.9310 nz         1 85K      -0.824600
      3 C13        -30.8800   -46.6840   -10.3760 ca         1 85K       0.081000
      4 C15        -28.8920   -45.5010   -11.0890 ca         1 85K      -0.052000
      5 C17        -30.7750   -44.2750   -10.1980 ca         1 85K      -0.129900
      6 N          -32.1690   -50.0120    -9.7780 na         1 85K       0.151400
      7 C          -32.1710   -51.4150    -9.4280 c3         1 85K       0.031600
      8 C1         -32.9820   -48.1760   -10.4260 cd         1 85K       0.321200
      9 C12        -31.6160   -47.9320   -10.2040 cd         1 85K      -0.243300
     10 C14        -29.5840   -46.6780   -10.9170 ca         1 85K      -0.106000
     11 C16        -31.4640   -45.4760   -10.0210 ca         1 85K      -0.130000
     12 C18        -31.3270   -42.9880    -9.8460 cc         1 85K       0.331900
     13 C19        -32.7010   -42.8870    -9.2540 c3         1 85K       0.115500
     14 C1A        -29.4800   -44.2890   -10.7320 ca         1 85K      -0.143600
     15 C1B        -28.7560   -43.0330   -10.9210 c          1 85K       0.704100
     16 C1C        -31.1270   -49.1580    -9.7850 cc         1 85K      -0.022300
     17 C1D        -29.7710   -49.5210    -9.3670 ca         1 85K      -0.015000
     18 C1E        -29.2570   -49.0110    -8.1920 ca         1 85K       0.116900
     19 C1F        -27.9620   -49.3090    -7.7930 ca         1 85K       0.026400
     20 C1G        -27.1530   -50.1260    -8.5630 ca         1 85K      -0.175000
     21 C1H        -27.6460   -50.6550    -9.7520 ca         1 85K       0.187100
     22 C1I        -25.6310   -51.7680   -10.2450 cx         1 85K       0.054100
     23 C1K        -25.3940   -52.8630    -9.2600 cx         1 85K      -0.125400
     24 C1L        -25.1590   -53.0880   -10.7280 cx         1 85K      -0.125400
     25 C1M        -28.9540   -50.3480   -10.1460 ca         1 85K      -0.026000
     26 C1N        -29.4450   -50.8670   -11.3760 cg         1 85K       0.226800
     27 F          -30.0130   -48.2270    -7.4300 f          1 85K      -0.115900
     28 N13        -30.6880   -41.8920   -10.0180 nd         1 85K      -0.475300
     29 N14        -29.4630   -41.9270   -10.5380 ns         1 85K      -0.287900
     30 N15        -29.8570   -51.2810   -12.3680 n1         1 85K      -0.323800
     31 O1         -26.9540   -51.4370   -10.5800 os         1 85K      -0.269900
     32 CL         -27.3760   -48.6530    -6.3240 cl         1 85K      -0.045400
     33 H31        -33.9950   -41.4260    -8.5630 hn         1 85K       0.463800
     34 H212       -32.4200   -41.0870    -8.2280 hn         1 85K       0.463800
     35 H112       -32.9950   -40.8800    -9.7510 hn         1 85K       0.463800
     36 H123       -27.8980   -45.5130   -11.5140 ha         1 85K       0.173000
     37 H2         -33.0680   -51.6360    -8.8560 h1         1 85K       0.071700
     38 H1         -32.1530   -52.0350   -10.3230 h1         1 85K       0.071700
     39 H3         -31.3020   -51.6450    -8.8180 h1         1 85K       0.071700
     40 H          -33.7320   -47.4810   -10.7760 h4         1 85K       0.038100
     41 H12        -29.1260   -47.6060   -11.2330 ha         1 85K       0.161000
     42 H124       -32.4580   -45.4790    -9.5910 ha         1 85K       0.130000
     43 H21        -33.4590   -43.2580    -9.9440 hx         1 85K       0.116200
     44 H11        -32.7760   -43.4620    -8.3310 hx         1 85K       0.116200
     45 H126       -26.1480   -50.3390    -8.2280 ha         1 85K       0.173000
     46 H127       -24.9510   -50.9210   -10.2690 h1         1 85K       0.093700
     47 H114       -26.2600   -53.3390    -8.8170 hc         1 85K       0.090700
     48 H214       -24.5420   -52.7680    -8.5990 hc         1 85K       0.090700
     49 H213       -24.1430   -53.1530   -11.0940 hc         1 85K       0.090700
     50 H113       -25.8700   -53.7110   -11.2560 hc         1 85K       0.090700
     51 H125       -29.0270   -41.0200   -10.6420 hn         1 85K       0.367500
     52 O          -27.6290   -42.9390   -11.3770 o          1 85K      -0.559500
@<TRIPOS>BOND
     1     1     6 1   
     2     1     8 2   
     3     2    13 1   
     4     2    33 1   
     5     2    34 1   
     6     2    35 1   
     7     3     9 1   
     8     3    10 ar  
     9     3    11 ar  
    10     4    10 ar  
    11     4    14 ar  
    12     4    36 1   
    13     5    11 ar  
    14     5    12 1   
    15     5    14 ar  
    16     6     7 1   
    17     6    16 1   
    18     7    37 1   
    19     7    38 1   
    20     7    39 1   
    21     8     9 1   
    22     8    40 1   
    23     9    16 2   
    24    10    41 1   
    25    11    42 1   
    26    12    13 1   
    27    12    28 2   
    28    13    43 1   
    29    13    44 1   
    30    14    15 1   
    31    15    29 1   
    32    15    52 2   
    33    16    17 1   
    34    17    18 ar  
    35    17    25 ar  
    36    18    19 ar  
    37    18    27 1   
    38    19    20 ar  
    39    19    32 1   
    40    20    21 ar  
    41    20    45 1   
    42    21    25 ar  
    43    21    31 1   
    44    22    23 1   
    45    22    24 1   
    46    22    31 1   
    47    22    46 1   
    48    23    24 1   
    49    23    47 1   
    50    23    48 1   
    51    24    49 1   
    52    24    50 1   
    53    25    26 1   
    54    26    30 3   
    55    28    29 1   
    56    29    51 1   
@<TRIPOS>SUBSTRUCTURE
     1 85K         1 TEMP              0 ****  ****    0 ROOT
