@<TRIPOS>MOLECULE
85K
   52    56     1     0     0
SMALL
No Charge or Current Charge


@<TRIPOS>ATOM
      1 N1         -33.5420   -49.2530    -9.8460 nc         1 85K      -0.490800
      2 N12        -33.1000   -41.4180    -9.9980 nz         1 85K      -0.962000
      3 C13        -30.6930   -46.8700    -9.9050 ca         1 85K       0.081000
      4 C15        -28.4900   -45.8420   -10.1950 ca         1 85K      -0.034000
      5 C17        -30.4700   -44.4160   -10.0780 ca         1 85K      -0.129900
      6 N          -32.4800   -50.0490    -9.4820 na         1 85K       0.172800
      7 C          -32.6950   -51.4700    -9.1770 c3         1 85K       0.060900
      8 C1         -32.9770   -48.0690   -10.0030 cd         1 85K       0.255900
      9 C12        -31.5800   -48.0510    -9.7480 cd         1 85K      -0.178000
     10 C14        -29.2940   -46.9830   -10.0490 ca         1 85K      -0.088000
     11 C16        -31.2650   -45.5780    -9.9330 ca         1 85K      -0.112000
     12 C18        -31.0710   -43.0620   -10.0940 cc         1 85K       0.331900
     13 C19        -32.5730   -42.8550    -9.9590 c3         1 85K       0.087300
     14 C1A        -29.0700   -44.5600   -10.2060 ca         1 85K      -0.143600
     15 C1B        -28.2230   -43.3300   -10.3610 c          1 85K       0.561600
     16 C1C        -31.2760   -49.3550    -9.4350 cc         1 85K      -0.073000
     17 C1D        -29.9700   -49.8610    -9.0050 ca         1 85K      -0.015000
     18 C1E        -29.4470   -49.4600    -7.7560 ca         1 85K       0.152000
     19 C1F        -28.1970   -49.9360    -7.3200 ca         1 85K       0.118000
     20 C1G        -27.4590   -50.8130    -8.1270 ca         1 85K      -0.157000
     21 C1H        -27.9620   -51.2120    -9.3770 ca         1 85K       0.187100
     22 C1I        -26.2730   -51.3250   -10.8880 cx         1 85K       0.077300
     23 C1K        -24.8680   -51.2440   -10.3410 cx         1 85K      -0.125400
     24 C1L        -25.1640   -52.1080   -11.5450 cx         1 85K      -0.125400
     25 C1M        -29.2230   -50.7510    -9.8180 ca         1 85K      -0.026000
     26 C1N        -29.7270   -51.1710   -11.1000 cg         1 85K       0.316000
     27 F          -30.1570   -48.6190    -6.9670 f          1 85K      -0.151000
     28 N13        -30.3090   -41.9710   -10.2310 nd         1 85K      -0.475300
     29 N14        -28.9420   -42.1490   -10.3560 ns         1 85K      -0.220900
     30 N15        -30.1490   -51.5070   -12.1350 n1         1 85K      -0.413000
     31 O1         -27.2190   -52.0760   -10.1510 os         1 85K      -0.293100
     32 Cl         -27.5420   -49.4430    -5.7600 cl         1 85K      -0.137000
     33 H31        -34.1250   -41.3440    -9.9000 hn         1 85K       0.519000
     34 H212       -32.6980   -40.8280    -9.2530 hn         1 85K       0.519000
     35 H112       -32.8610   -40.9310   -10.8750 hn         1 85K       0.519000
     36 H123       -27.4140   -45.9590   -10.3080 ha         1 85K       0.155000
     37 H2         -33.6950   -51.6110    -8.7500 h1         1 85K       0.071700
     38 H1         -32.6070   -52.0570   -10.0990 h1         1 85K       0.071700
     39 H3         -31.9440   -51.8120    -8.4550 h1         1 85K       0.071700
     40 H          -33.6050   -47.2440   -10.3150 h4         1 85K       0.038100
     41 H12        -28.8080   -47.9490   -10.0850 ha         1 85K       0.143000
     42 H124       -32.3390   -45.4780    -9.8190 ha         1 85K       0.112000
     43 H21        -33.0600   -43.4190   -10.7600 hx         1 85K       0.116200
     44 H11        -32.8860   -43.3080    -9.0130 hx         1 85K       0.116200
     45 H126       -26.4980   -51.1830    -7.7840 ha         1 85K       0.155000
     46 H127       -26.6790   -50.4730   -11.4360 h1         1 85K       0.093700
     47 H114       -24.6530   -51.7470    -9.4020 hc         1 85K       0.090700
     48 H214       -24.3190   -50.3190   -10.5000 hc         1 85K       0.090700
     49 H213       -24.8120   -51.7660   -12.5150 hc         1 85K       0.090700
     50 H113       -25.1570   -53.1870   -11.4120 hc         1 85K       0.090700
     51 H125       -28.3640   -41.3190   -10.4600 hn         1 85K       0.367500
     52 O          -27.0060   -43.3540   -10.4800 o          1 85K      -0.484000
@<TRIPOS>BOND
     1     1     6 1   
     2     1     8 2   
     3     2    13 1   
     4     2    33 1   
     5     2    34 1   
     6     2    35 1   
     7     3     9 1   
     8     3    10 ar  
     9     3    11 ar  
    10     4    10 ar  
    11     4    14 ar  
    12     4    36 1   
    13     5    11 ar  
    14     5    12 1   
    15     5    14 ar  
    16     6     7 1   
    17     6    16 1   
    18     7    37 1   
    19     7    38 1   
    20     7    39 1   
    21     8     9 1   
    22     8    40 1   
    23     9    16 2   
    24    10    41 1   
    25    11    42 1   
    26    12    13 1   
    27    12    28 2   
    28    13    43 1   
    29    13    44 1   
    30    14    15 1   
    31    15    29 1   
    32    15    52 2   
    33    16    17 1   
    34    17    18 ar  
    35    17    25 ar  
    36    18    19 ar  
    37    18    27 1   
    38    19    20 ar  
    39    19    32 1   
    40    20    21 ar  
    41    20    45 1   
    42    21    25 ar  
    43    21    31 1   
    44    22    23 1   
    45    22    24 1   
    46    22    31 1   
    47    22    46 1   
    48    23    24 1   
    49    23    47 1   
    50    23    48 1   
    51    24    49 1   
    52    24    50 1   
    53    25    26 1   
    54    26    30 3   
    55    28    29 1   
    56    29    51 1   
@<TRIPOS>SUBSTRUCTURE
     1 85K         1 TEMP              0 ****  ****    0 ROOT
