@<TRIPOS>MOLECULE
85M
   64    68     1     0     0
SMALL
abcg2


@<TRIPOS>ATOM
      1 CBD         -4.9560   -31.6040    18.4790 c5         1 85M       0.168800
      2 CBE         -4.9680   -31.3840    16.9640 c5         1 85M      -0.096900
      3 CBF         -6.0670   -32.3440    16.5050 c5         1 85M      -0.096900
      4 CBG         -5.8200   -33.5620    17.3930 c5         1 85M       0.168800
      5 NBC         -5.3640   -33.0140    18.6880 n3         1 85M      -0.749600
      6 CBB         -4.4010   -33.8660    19.3640 c3         1 85M       0.181800
      7 CBA         -4.2790   -33.6170    20.8570 c3         1 85M       0.161600
      8 OAZ         -3.5580   -32.4050    21.0930 os         1 85M      -0.358100
      9 CAW         -3.4010   -31.9770    22.3740 ca         1 85M       0.153100
     10 CAX         -3.8850   -32.6480    23.4960 ca         1 85M      -0.173500
     11 CAY         -3.6740   -32.1030    24.7630 ca         1 85M      -0.049500
     12 CAV         -2.7040   -30.7740    22.5370 ca         1 85M      -0.173500
     13 CAU         -2.5030   -30.2530    23.8010 ca         1 85M      -0.049500
     14 CAT         -2.9840   -30.9110    24.9370 ca         1 85M      -0.132300
     15 CAI         -2.7110   -30.3660    26.3130 c6         1 85M       0.241600
     16 OAH         -3.2020   -29.0010    26.3420 os         1 85M      -0.356100
     17 CAE         -2.4820   -28.0100    26.9330 ca         1 85M       0.178100
     18 CAD         -2.9130   -26.7140    26.6600 ca         1 85M      -0.178000
     19 CAC         -2.2540   -25.6340    27.2320 ca         1 85M       0.163100
     20 OAG         -2.7220   -24.3830    26.9380 oh         1 85M      -0.536100
     21 CAB         -1.1550   -25.8480    28.0610 ca         1 85M      -0.235000
     22 CAA         -0.7380   -27.1500    28.3090 ca         1 85M      -0.032000
     23 CAF         -1.3880   -28.2590    27.7720 ca         1 85M      -0.190300
     24 CAK         -0.9710   -29.6940    28.0070 c6         1 85M       0.006600
     25 CAR          0.4680   -29.8450    28.4890 c3         1 85M      -0.083100
     26 CAJ         -1.2300   -30.4750    26.7020 c6         1 85M      -0.037400
     27 CAL         -0.8320   -31.9290    26.7650 ca         1 85M      -0.108300
     28 CAM         -1.3740   -32.7990    27.7110 ca         1 85M      -0.065500
     29 CAN         -1.0070   -34.1390    27.7530 ca         1 85M      -0.168500
     30 CAO         -0.0770   -34.6330    26.8400 ca         1 85M       0.133100
     31 OAS          0.3240   -35.9400    26.8340 oh         1 85M      -0.538100
     32 CAP          0.4780   -33.7780    25.8900 ca         1 85M      -0.168500
     33 CAQ          0.0980   -32.4440    25.8630 ca         1 85M      -0.065500
     34 H1          -3.9810   -31.4090    18.9240 h1         1 85M       0.045700
     35 H2          -5.6740   -30.9330    18.9630 h1         1 85M       0.045700
     36 H3          -4.0120   -31.6880    16.5300 hc         1 85M       0.048700
     37 H4          -5.1490   -30.3440    16.6920 hc         1 85M       0.048700
     38 H5          -6.0100   -32.5960    15.4450 hc         1 85M       0.048700
     39 H6          -7.0540   -31.9180    16.7030 hc         1 85M       0.048700
     40 H7          -6.7160   -34.1740    17.5240 h1         1 85M       0.045700
     41 H8          -5.0430   -34.1970    16.9440 h1         1 85M       0.045700
     42 H10         -4.7540   -34.8970    19.2770 h1         1 85M       0.039200
     43 H11         -3.4030   -33.8300    18.8940 h1         1 85M       0.039200
     44 H12         -5.2810   -33.5420    21.2900 h1         1 85M       0.044200
     45 H13         -3.7510   -34.4510    21.3290 h1         1 85M       0.044200
     46 H14         -4.4200   -33.5810    23.4020 ha         1 85M       0.122000
     47 H15         -4.0510   -32.6340    25.6290 ha         1 85M       0.115500
     48 H16         -2.3320   -30.2630    21.6580 ha         1 85M       0.122000
     49 H17         -1.9630   -29.3200    23.9120 ha         1 85M       0.115500
     50 H18         -3.3050   -30.9230    27.0410 h1         1 85M       0.059700
     51 H19         -3.7620   -26.5560    26.0070 ha         1 85M       0.144000
     52 H20         -2.1770   -23.7200    27.3830 ho         1 85M       0.462000
     53 H21         -0.6320   -25.0070    28.5010 ha         1 85M       0.115000
     54 H22          0.1210   -27.2990    28.9490 ha         1 85M       0.112000
     55 H23         -1.6320   -30.1190    28.7730 hc         1 85M       0.054700
     56 H24          0.6340   -29.3190    29.4300 hc         1 85M       0.039367
     57 H25          0.7070   -30.8950    28.6510 hc         1 85M       0.039367
     58 H26          1.1670   -29.4490    27.7480 hc         1 85M       0.039367
     59 H27         -0.6410   -30.0040    25.9100 hc         1 85M       0.068700
     60 H28         -2.0980   -32.4410    28.4320 ha         1 85M       0.114500
     61 H29         -1.4380   -34.8000    28.4960 ha         1 85M       0.122000
     62 H30         -0.1280   -36.4270    27.5360 ho         1 85M       0.462000
     63 H31          1.2010   -34.1660    25.1840 ha         1 85M       0.122000
     64 H32          0.5300   -31.7870    25.1180 ha         1 85M       0.114500
@<TRIPOS>BOND
     1     1     2 1   
     2     1     5 1   
     3     1    34 1   
     4     1    35 1   
     5     2     3 1   
     6     2    36 1   
     7     2    37 1   
     8     3     4 1   
     9     3    38 1   
    10     3    39 1   
    11     4     5 1   
    12     4    40 1   
    13     4    41 1   
    14     5     6 1   
    15     6     7 1   
    16     6    42 1   
    17     6    43 1   
    18     7     8 1   
    19     7    44 1   
    20     7    45 1   
    21     8     9 1   
    22     9    10 ar  
    23     9    12 ar  
    24    10    11 ar  
    25    10    46 1   
    26    11    14 ar  
    27    11    47 1   
    28    12    13 ar  
    29    12    48 1   
    30    13    14 ar  
    31    13    49 1   
    32    14    15 1   
    33    15    16 1   
    34    15    26 1   
    35    15    50 1   
    36    16    17 1   
    37    17    18 ar  
    38    17    23 ar  
    39    18    19 ar  
    40    18    51 1   
    41    19    20 1   
    42    19    21 ar  
    43    20    52 1   
    44    21    22 ar  
    45    21    53 1   
    46    22    23 ar  
    47    22    54 1   
    48    23    24 1   
    49    24    25 1   
    50    24    26 1   
    51    24    55 1   
    52    25    56 1   
    53    25    57 1   
    54    25    58 1   
    55    26    27 1   
    56    26    59 1   
    57    27    28 ar  
    58    27    33 ar  
    59    28    29 ar  
    60    28    60 1   
    61    29    30 ar  
    62    29    61 1   
    63    30    31 1   
    64    30    32 ar  
    65    31    62 1   
    66    32    33 ar  
    67    32    63 1   
    68    33    64 1   
@<TRIPOS>SUBSTRUCTURE
     1 85M         1 TEMP              0 ****  ****    0 ROOT
