@<TRIPOS>MOLECULE
85M
   64    68     1     0     0
SMALL
No Charge or Current Charge


@<TRIPOS>ATOM
      1 CBD         -4.7450   -31.9670    18.3180 c5         1 85M       0.168800
      2 CBE         -5.5990   -31.4000    17.1500 c5         1 85M      -0.096900
      3 CBF         -6.1300   -32.6690    16.4110 c5         1 85M      -0.096900
      4 CBG         -5.3940   -33.8340    17.1190 c5         1 85M       0.168800
      5 NBC         -5.3210   -33.3190    18.5010 n3         1 85M      -0.749600
      6 CBB         -4.6150   -34.2090    19.4660 c3         1 85M       0.181800
      7 CBA         -4.5820   -33.7260    20.9410 c3         1 85M       0.161600
      8 OAZ         -3.5840   -32.6930    21.0850 os         1 85M      -0.358100
      9 CAW         -3.3430   -32.0660    22.2890 ca         1 85M       0.153100
     10 CAX         -4.0400   -32.3930    23.4720 ca         1 85M      -0.173500
     11 CAY         -3.7490   -31.7180    24.6710 ca         1 85M      -0.049500
     12 CAV         -2.3600   -31.0650    22.3210 ca         1 85M      -0.173500
     13 CAU         -2.0680   -30.3910    23.5190 ca         1 85M      -0.049500
     14 CAT         -2.7620   -30.7140    24.7020 ca         1 85M      -0.132300
     15 CAI         -2.4360   -29.9980    26.0190 c6         1 85M       0.241600
     16 OAH         -2.5750   -28.5810    25.8110 os         1 85M      -0.356100
     17 CAE         -2.1650   -27.7150    26.7990 ca         1 85M       0.178100
     18 CAD         -2.6090   -26.3870    26.7330 ca         1 85M      -0.178000
     19 CAC         -2.2410   -25.4710    27.7230 ca         1 85M       0.163100
     20 OAG         -2.6830   -24.1860    27.6570 oh         1 85M      -0.536100
     21 CAB         -1.4280   -25.8810    28.7880 ca         1 85M      -0.235000
     22 CAA         -0.9670   -27.2060    28.8550 ca         1 85M      -0.032000
     23 CAF         -1.3120   -28.1380    27.8490 ca         1 85M      -0.190300
     24 CAK         -0.7970   -29.5930    27.9020 c6         1 85M       0.006600
     25 CAR          0.6960   -29.6880    28.3410 c3         1 85M      -0.083100
     26 CAJ         -1.0180   -30.3250    26.5470 c6         1 85M      -0.037400
     27 CAL         -0.7810   -31.8430    26.6420 ca         1 85M      -0.108300
     28 CAM         -1.5910   -32.6530    27.4660 ca         1 85M      -0.065500
     29 CAN         -1.3730   -34.0400    27.5350 ca         1 85M      -0.168500
     30 CAO         -0.3450   -34.6270    26.7800 ca         1 85M       0.133100
     31 OAS         -0.1280   -35.9710    26.8410 oh         1 85M      -0.538100
     32 CAP          0.4630   -33.8300    25.9570 ca         1 85M      -0.168500
     33 CAQ          0.2470   -32.4430    25.8860 ca         1 85M      -0.065500
     34 H1          -3.6830   -32.0220    18.0370 h1         1 85M       0.045700
     35 H2          -4.8270   -31.3420    19.2180 h1         1 85M       0.045700
     36 H3          -5.0010   -30.7560    16.4950 hc         1 85M       0.048700
     37 H4          -6.4300   -30.7920    17.5260 hc         1 85M       0.048700
     38 H5          -5.9250   -32.6480    15.3350 hc         1 85M       0.048700
     39 H6          -7.2150   -32.7650    16.5320 hc         1 85M       0.048700
     40 H7          -5.9520   -34.7780    17.0460 h1         1 85M       0.045700
     41 H8          -4.3930   -33.9920    16.6930 h1         1 85M       0.045700
     42 H10         -5.1100   -35.1890    19.4610 h1         1 85M       0.039200
     43 H11         -3.5810   -34.3820    19.1340 h1         1 85M       0.039200
     44 H12         -5.5770   -33.3590    21.2260 h1         1 85M       0.044200
     45 H13         -4.3320   -34.5800    21.5830 h1         1 85M       0.044200
     46 H14         -4.8050   -33.1640    23.4820 ha         1 85M       0.122000
     47 H15         -4.2890   -31.9830    25.5780 ha         1 85M       0.115500
     48 H16         -1.8210   -30.8110    21.4120 ha         1 85M       0.122000
     49 H17         -1.3020   -29.6180    23.5270 ha         1 85M       0.115500
     50 H18         -3.1720   -30.2970    26.7790 h1         1 85M       0.059700
     51 H19         -3.2510   -26.0730    25.9150 ha         1 85M       0.144000
     52 H20         -2.3280   -23.7000    28.4310 ho         1 85M       0.462000
     53 H21         -1.1470   -25.1780    29.5680 ha         1 85M       0.115000
     54 H22         -0.3450   -27.4990    29.6960 ha         1 85M       0.112000
     55 H23         -1.3740   -30.1130    28.6790 hc         1 85M       0.054700
     56 H24          0.8460   -29.3410    29.3690 hc         1 85M       0.039367
     57 H25          1.0590   -30.7220    28.3100 hc         1 85M       0.039367
     58 H26          1.3410   -29.0910    27.6850 hc         1 85M       0.039367
     59 H27         -0.3040   -29.9050    25.8250 hc         1 85M       0.068700
     60 H28         -2.3930   -32.2120    28.0540 ha         1 85M       0.114500
     61 H29         -2.0060   -34.6500    28.1740 ha         1 85M       0.122000
     62 H30         -0.7800   -36.3630    27.4600 ho         1 85M       0.462000
     63 H31          1.2570   -34.2860    25.3720 ha         1 85M       0.122000
     64 H32          0.8790   -31.8370    25.2410 ha         1 85M       0.114500
@<TRIPOS>BOND
     1     1     2 1   
     2     1     5 1   
     3     1    34 1   
     4     1    35 1   
     5     2     3 1   
     6     2    36 1   
     7     2    37 1   
     8     3     4 1   
     9     3    38 1   
    10     3    39 1   
    11     4     5 1   
    12     4    40 1   
    13     4    41 1   
    14     5     6 1   
    15     6     7 1   
    16     6    42 1   
    17     6    43 1   
    18     7     8 1   
    19     7    44 1   
    20     7    45 1   
    21     8     9 1   
    22     9    10 ar  
    23     9    12 ar  
    24    10    11 ar  
    25    10    46 1   
    26    11    14 ar  
    27    11    47 1   
    28    12    13 ar  
    29    12    48 1   
    30    13    14 ar  
    31    13    49 1   
    32    14    15 1   
    33    15    16 1   
    34    15    26 1   
    35    15    50 1   
    36    16    17 1   
    37    17    18 ar  
    38    17    23 ar  
    39    18    19 ar  
    40    18    51 1   
    41    19    20 1   
    42    19    21 ar  
    43    20    52 1   
    44    21    22 ar  
    45    21    53 1   
    46    22    23 ar  
    47    22    54 1   
    48    23    24 1   
    49    24    25 1   
    50    24    26 1   
    51    24    55 1   
    52    25    56 1   
    53    25    57 1   
    54    25    58 1   
    55    26    27 1   
    56    26    59 1   
    57    27    28 ar  
    58    27    33 ar  
    59    28    29 ar  
    60    28    60 1   
    61    29    30 ar  
    62    29    61 1   
    63    30    31 1   
    64    30    32 ar  
    65    31    62 1   
    66    32    33 ar  
    67    32    63 1   
    68    33    64 1   
@<TRIPOS>SUBSTRUCTURE
     1 85M         1 TEMP              0 ****  ****    0 ROOT
