@<TRIPOS>MOLECULE
85O
   61    65     1     0     0
SMALL
bcc


@<TRIPOS>ATOM
      1 CAA        -41.5810     6.5280    12.3900 ca         1 85O      -0.093000
      2 CAB        -42.8320     6.6380    13.0230 ca         1 85O      -0.192000
      3 CAC        -42.9400     6.6610    14.4030 ca         1 85O       0.143100
      4 CAD        -41.7510     6.5690    15.1490 ca         1 85O      -0.054200
      5 CAE        -40.4990     6.4660    14.5100 ca         1 85O      -0.060800
      6 CAF        -40.4130     6.4410    13.1100 ca         1 85O      -0.123000
      7 CAI        -39.5220     6.4040    15.5440 cc         1 85O      -0.142400
      8 CAJ        -40.2000     6.4540    16.7220 cd         1 85O      -0.139300
      9 CAM        -38.0440     6.2530    15.4780 c6         1 85O      -0.022200
     10 CAN        -37.3910     6.5200    16.8340 c6         1 85O       0.172500
     11 CAP        -39.5480     6.4890    18.0590 c6         1 85O       0.227700
     12 CAR        -39.3430     7.9340    18.5620 c6         1 85O      -0.088400
     13 CAS        -37.2010     7.3570    19.5880 c2         1 85O      -0.214400
     14 CAT        -37.8540     8.2730    18.6040 c6         1 85O      -0.013500
     15 CAU        -37.1790     8.0160    17.2310 c6         1 85O      -0.112000
     16 CAV        -35.6720     8.2660    17.4010 c          1 85O       0.663100
     17 CBA        -37.6770     9.0360    16.1960 c3         1 85O       0.150400
     18 CBC        -36.4560     7.6870    20.6380 c2         1 85O      -0.058200
     19 CBD        -36.1130     9.0580    21.1130 c3         1 85O      -0.075900
     20 NAK        -41.5470     6.5570    16.5110 na         1 85O      -0.018400
     21 NAO        -38.1950     5.8240    17.9270 n4         1 85O      -0.614800
     22 OAG        -44.0950     6.7670    15.0860 os         1 85O      -0.330900
     23 OAW        -34.8040     7.4560    17.2050 o          1 85O      -0.524000
     24 OAX        -35.4440     9.5010    17.8060 os         1 85O      -0.412900
     25 OBB        -36.7510     9.0650    15.1360 oh         1 85O      -0.602800
     26 H1         -41.5520     6.5120    11.3080 ha         1 85O       0.146000
     27 H2         -43.7160     6.7070    12.4040 ha         1 85O       0.149000
     28 H3         -39.4550     6.3570    12.6150 ha         1 85O       0.144000
     29 H4         -46.0980     6.9630    15.0900 h1         1 85O       0.051033
     30 H5         -45.3090     7.7790    13.7280 h1         1 85O       0.051033
     31 H6         -45.4830     6.0100    13.7270 h1         1 85O       0.051033
     32 H7         -42.0920     6.5680    18.5190 h1         1 85O       0.060700
     33 H8         -43.0420     7.6500    17.5110 h1         1 85O       0.060700
     34 H9         -43.3080     5.8990    17.4450 h1         1 85O       0.060700
     35 H10        -37.7730     5.2470    15.1440 hc         1 85O       0.092700
     36 H11        -37.5960     6.9250    14.7460 hc         1 85O       0.092700
     37 H12        -36.4270     6.0120    16.8480 hx         1 85O       0.119700
     38 H13        -40.0900     5.8910    18.7940 hx         1 85O       0.092700
     39 H16        -39.8820     8.6290    17.9190 hc         1 85O       0.084700
     40 H17        -39.7560     8.0450    19.5650 hc         1 85O       0.084700
     41 H18        -37.7410     9.3180    18.8810 hc         1 85O       0.111700
     42 H19        -34.1260    10.9230    18.3560 h1         1 85O       0.059367
     43 H20        -33.6140     9.2760    18.7810 h1         1 85O       0.059367
     44 H21        -33.5110     9.8330    17.0940 h1         1 85O       0.059367
     45 H25        -37.7540    10.0130    16.6850 h1         1 85O       0.049700
     46 H26        -38.6820     8.7730    15.8530 h1         1 85O       0.049700
     47 H27        -36.0430     6.8740    21.2300 ha         1 85O       0.134000
     48 H28        -36.4040     9.1810    22.1580 hc         1 85O       0.063367
     49 H29        -35.0330     9.2170    21.0730 hc         1 85O       0.063367
     50 H30        -36.5880     9.8500    20.5390 hc         1 85O       0.063367
     51 H31        -37.0440     9.7150    14.4890 ho         1 85O       0.432000
     52 CAL        -42.5560     6.6770    17.5440 c3         1 85O       0.035600
     53 CAQ        -37.4710     5.9210    19.2410 c6         1 85O       0.179000
     54 CAZ        -38.3450     4.3680    17.6330 c3         1 85O       0.109100
     55 H14        -38.1080     5.4310    19.9810 hx         1 85O       0.093200
     56 CAH        -45.3000     6.8850    14.3560 c3         1 85O       0.123700
     57 CAY        -34.0870     9.8920    18.0170 c3         1 85O       0.127700
     58 H15        -36.5550     5.3370    19.1470 hx         1 85O       0.093200
     59 H22        -38.8070     3.8930    18.4950 hx         1 85O       0.095700
     60 H23        -38.9710     4.2100    16.7630 hx         1 85O       0.095700
     61 H24        -37.3580     3.9440    17.4660 hx         1 85O       0.095700
@<TRIPOS>BOND
     1     1     2 ar  
     2     1     6 ar  
     3     1    26 1   
     4     2     3 ar  
     5     2    27 1   
     6     3     4 ar  
     7     3    22 1   
     8     4     5 ar  
     9     4    20 1   
    10     5     6 ar  
    11     5     7 1   
    12     6    28 1   
    13     7     8 2   
    14     7     9 1   
    15     8    11 1   
    16     8    20 1   
    17     9    10 1   
    18     9    35 1   
    19     9    36 1   
    20    10    15 1   
    21    10    21 1   
    22    10    37 1   
    23    11    12 1   
    24    11    21 1   
    25    11    38 1   
    26    12    14 1   
    27    12    39 1   
    28    12    40 1   
    29    13    14 1   
    30    13    18 2   
    31    13    53 1   
    32    14    15 1   
    33    14    41 1   
    34    15    16 1   
    35    15    17 1   
    36    16    23 2   
    37    16    24 1   
    38    17    25 1   
    39    17    45 1   
    40    17    46 1   
    41    18    19 1   
    42    18    47 1   
    43    19    48 1   
    44    19    49 1   
    45    19    50 1   
    46    20    52 1   
    47    21    53 1   
    48    21    54 1   
    49    22    56 1   
    50    24    57 1   
    51    25    51 1   
    52    29    56 1   
    53    30    56 1   
    54    31    56 1   
    55    32    52 1   
    56    33    52 1   
    57    34    52 1   
    58    42    57 1   
    59    43    57 1   
    60    44    57 1   
    61    53    55 1   
    62    53    58 1   
    63    54    59 1   
    64    54    60 1   
    65    54    61 1   
@<TRIPOS>SUBSTRUCTURE
     1 85O         1 TEMP              0 ****  ****    0 ROOT
