@<TRIPOS>MOLECULE
85O
   61    65     1     0     0
SMALL
No Charge or Current Charge


@<TRIPOS>ATOM
      1 CAA        -41.5690     6.4500    12.3490 ca         1 85O      -0.075000
      2 CAB        -42.8340     6.5970    12.9640 ca         1 85O      -0.174000
      3 CAC        -42.9470     6.6630    14.3770 ca         1 85O       0.143100
      4 CAD        -41.7600     6.5790    15.1390 ca         1 85O      -0.054200
      5 CAE        -40.5400     6.4370    14.5240 ca         1 85O      -0.060800
      6 CAF        -40.4030     6.3690    13.1330 ca         1 85O      -0.105000
      7 CAI        -39.5290     6.3820    15.5370 cc         1 85O      -0.142400
      8 CAJ        -40.1950     6.4890    16.7520 cd         1 85O      -0.139300
      9 CAM        -38.0270     6.2040    15.4420 c6         1 85O      -0.022200
     10 CAN        -37.3400     6.5030    16.8190 c6         1 85O       0.144300
     11 CAP        -39.4710     6.4670    18.0820 c6         1 85O       0.199500
     12 CAR        -39.2930     7.9260    18.5920 c6         1 85O      -0.088400
     13 CAS        -37.1180     7.4100    19.6230 c2         1 85O      -0.214400
     14 CAT        -37.7850     8.3140    18.5810 c6         1 85O      -0.013500
     15 CAU        -37.1450     8.0550    17.1500 c6         1 85O      -0.112000
     16 CAV        -35.6130     8.3280    17.1740 c          1 85O       0.614100
     17 CBA        -37.7990     9.1000    16.1650 c3         1 85O       0.173600
     18 CBC        -36.4740     7.7980    20.7410 c2         1 85O      -0.108200
     19 CBD        -36.2320     9.2050    21.2590 c3         1 85O      -0.075900
     20 NAK        -41.5820     6.6150    16.5220 na         1 85O      -0.047700
     21 NAO        -38.0950     5.7570    17.9720 n4         1 85O      -0.502000
     22 OAG        -44.1680     6.8060    15.0100 os         1 85O      -0.354100
     23 OAW        -34.8800     8.0240    16.2400 o          1 85O      -0.475000
     24 OAX        -35.2150     9.2060    18.1530 os         1 85O      -0.436100
     25 OBB        -37.1590     9.2160    14.8880 oh         1 85O      -0.665000
     26 H1         -41.4950     6.4010    11.2640 ha         1 85O       0.128000
     27 H2         -43.7110     6.6570    12.3270 ha         1 85O       0.131000
     28 H3         -39.4250     6.2570    12.6710 ha         1 85O       0.126000
     29 H4         -46.2480     7.0060    14.9810 h1         1 85O       0.051033
     30 H5         -45.4060     7.7680    13.6160 h1         1 85O       0.051033
     31 H6         -45.5780     5.9930    13.6860 h1         1 85O       0.051033
     32 H7         -42.2410     6.7530    18.5270 h1         1 85O       0.060700
     33 H8         -43.1900     7.7010    17.3490 h1         1 85O       0.060700
     34 H9         -43.3610     5.9190    17.4150 h1         1 85O       0.060700
     35 H10        -37.8070     5.1660    15.1610 hc         1 85O       0.092700
     36 H11        -37.5880     6.7910    14.6300 hc         1 85O       0.092700
     37 H12        -36.3500     6.0380    16.8010 hx         1 85O       0.119700
     38 H13        -40.0490     5.8900    18.8110 hx         1 85O       0.092700
     39 H16        -39.8960     8.6320    18.0070 hc         1 85O       0.084700
     40 H17        -39.6760     7.9930    19.6190 hc         1 85O       0.084700
     41 H18        -37.6990     9.3720    18.8530 hc         1 85O       0.111700
     42 H19        -33.6580    10.2830    19.0410 h1         1 85O       0.059367
     43 H20        -33.1810     8.7240    18.3380 h1         1 85O       0.059367
     44 H21        -33.5350    10.1110    17.2770 h1         1 85O       0.059367
     45 H25        -37.7710    10.0820    16.6570 h1         1 85O       0.049700
     46 H26        -38.8600     8.8590    16.0260 h1         1 85O       0.049700
     47 H27        -36.0600     7.0340    21.4040 ha         1 85O       0.184000
     48 H28        -36.6870     9.3360    22.2480 hc         1 85O       0.063367
     49 H29        -35.1580     9.3970    21.3650 hc         1 85O       0.063367
     50 H30        -36.6360     9.9880    20.6110 hc         1 85O       0.063367
     51 H31        -37.6590     9.8870    14.3710 ho         1 85O       0.471000
     52 CAL        -42.6600     6.7550    17.5140 c3         1 85O       0.064900
     53 CAQ        -37.3040     5.9410    19.2890 c6         1 85O       0.150800
     54 CAZ        -38.2730     4.2540    17.6970 c3         1 85O       0.080900
     55 H14        -37.8630     5.4240    20.0750 hx         1 85O       0.093200
     56 CAH        -45.4080     6.8970    14.2850 c3         1 85O       0.146900
     57 CAY        -33.8310     9.5980    18.2010 c3         1 85O       0.150900
     58 H15        -36.3410     5.4370    19.1610 hx         1 85O       0.093200
     59 H22        -38.7770     3.7910    18.5470 hx         1 85O       0.095700
     60 H23        -38.8810     4.1190    16.8000 hx         1 85O       0.095700
     61 H24        -37.2930     3.7940    17.5530 hx         1 85O       0.095700
@<TRIPOS>BOND
     1     1     2 ar  
     2     1     6 ar  
     3     1    26 1   
     4     2     3 ar  
     5     2    27 1   
     6     3     4 ar  
     7     3    22 1   
     8     4     5 ar  
     9     4    20 1   
    10     5     6 ar  
    11     5     7 1   
    12     6    28 1   
    13     7     8 2   
    14     7     9 1   
    15     8    11 1   
    16     8    20 1   
    17     9    10 1   
    18     9    35 1   
    19     9    36 1   
    20    10    15 1   
    21    10    21 1   
    22    10    37 1   
    23    11    12 1   
    24    11    21 1   
    25    11    38 1   
    26    12    14 1   
    27    12    39 1   
    28    12    40 1   
    29    13    14 1   
    30    13    18 2   
    31    13    53 1   
    32    14    15 1   
    33    14    41 1   
    34    15    16 1   
    35    15    17 1   
    36    16    23 2   
    37    16    24 1   
    38    17    25 1   
    39    17    45 1   
    40    17    46 1   
    41    18    19 1   
    42    18    47 1   
    43    19    48 1   
    44    19    49 1   
    45    19    50 1   
    46    20    52 1   
    47    21    53 1   
    48    21    54 1   
    49    22    56 1   
    50    24    57 1   
    51    25    51 1   
    52    29    56 1   
    53    30    56 1   
    54    31    56 1   
    55    32    52 1   
    56    33    52 1   
    57    34    52 1   
    58    42    57 1   
    59    43    57 1   
    60    44    57 1   
    61    53    55 1   
    62    53    58 1   
    63    54    59 1   
    64    54    60 1   
    65    54    61 1   
@<TRIPOS>SUBSTRUCTURE
     1 85O         1 TEMP              0 ****  ****    0 ROOT
