@<TRIPOS>MOLECULE
85P
   33    35     1     0     0
SMALL
No Charge or Current Charge


@<TRIPOS>ATOM
      1 C1          -3.1200    -0.5660    -0.6100 ca         1 85P       0.046100
      2 C2          -2.5160    -1.8310    -0.5820 ca         1 85P      -0.117000
      3 C3          -2.3290     0.5940    -0.5620 ca         1 85P      -0.020000
      4 C4          -0.9200     0.4990    -0.4620 ca         1 85P      -0.051000
      5 C5          -1.1190    -1.9320    -0.4740 ca         1 85P      -0.090000
      6 C6          -0.3080    -0.7830    -0.4050 ca         1 85P       0.262000
      7 C7          -0.0920     1.6500    -0.4070 ca         1 85P      -0.075600
      8 C8           1.2970     1.4490    -0.2700 ca         1 85P      -0.153000
      9 C9           1.8350     0.1450    -0.2050 cp         1 85P       0.410500
     10 C10          3.3130    -0.1160    -0.0620 cp         1 85P      -0.124500
     11 C11          3.8920    -1.3420    -0.4970 ca         1 85P      -0.076500
     12 C12          4.1850     0.8470     0.5180 ca         1 85P      -0.076500
     13 C13          5.5630     0.5990     0.6480 ca         1 85P      -0.119000
     14 C14          6.1040    -0.6150     0.2040 ca         1 85P       0.118000
     15 C15          5.2700    -1.5860    -0.3670 ca         1 85P      -0.119000
     16 Cl16         7.8280    -0.9220     0.3690 cl         1 85P      -0.230000
     17 O17         -4.4850    -0.4550    -0.7260 os         1 85P      -0.475800
     18 C18         -0.6240     3.0640    -0.4900 c          1 85P       0.718600
     19 O19         -0.2780     3.8560     0.3740 o          1 85P      -0.699000
     20 O20         -1.3130     3.3720    -1.4520 o          1 85P      -0.699000
     21 S21         -5.4330    -0.7090     0.6080 s6         1 85P       1.579600
     22 O22         -4.7680    -0.1060     1.7750 o          1 85P      -0.553000
     23 O23         -6.8150    -0.3290     0.2710 o          1 85P      -0.553000
     24 N24          1.0300    -0.9380    -0.2890 nb         1 85P      -0.708000
     25 H1          -3.1200    -2.7330    -0.6440 ha         1 85P       0.119000
     26 H2          -2.8290     1.5570    -0.5970 ha         1 85P       0.195000
     27 H3          -0.6560    -2.9150    -0.4420 ha         1 85P       0.121000
     28 H4           1.9560     2.3110    -0.2370 ha         1 85P       0.149000
     29 H5           3.2680    -2.1100    -0.9490 ha         1 85P       0.135500
     30 H6           3.7950     1.7920     0.8900 ha         1 85P       0.135500
     31 H7           6.2100     1.3490     1.0980 ha         1 85P       0.121000
     32 H8           5.6900    -2.5280    -0.7090 ha         1 85P       0.121000
     33 F1          -5.4460    -2.3310     0.8710 f          1 85P      -0.291900
@<TRIPOS>BOND
     1     1     2 ar  
     2     1     3 ar  
     3     1    17 1   
     4     2     5 ar  
     5     2    25 1   
     6     3     4 ar  
     7     3    26 1   
     8     4     6 ar  
     9     4     7 ar  
    10     5     6 ar  
    11     5    27 1   
    12     6    24 ar  
    13     7     8 ar  
    14     7    18 1   
    15     8     9 ar  
    16     8    28 1   
    17     9    10 1   
    18     9    24 ar  
    19    10    11 ar  
    20    10    12 ar  
    21    11    15 ar  
    22    11    29 1   
    23    12    13 ar  
    24    12    30 1   
    25    13    14 ar  
    26    13    31 1   
    27    14    15 ar  
    28    14    16 1   
    29    15    32 1   
    30    17    21 1   
    31    18    19 1   
    32    18    20 1   
    33    21    22 2   
    34    21    23 2   
    35    21    33 1   
@<TRIPOS>SUBSTRUCTURE
     1 85P         1 TEMP              0 ****  ****    0 ROOT
