@<TRIPOS>MOLECULE
85P
   33    35     1     0     0
SMALL
bcc


@<TRIPOS>ATOM
      1 C1          -3.0230    -0.6780    -0.6210 ca         1 85P       0.046100
      2 C2          -2.4150    -1.9410    -0.6070 ca         1 85P      -0.135000
      3 C3          -2.3330     0.4910    -0.5240 ca         1 85P      -0.038000
      4 C4          -0.9240     0.4570    -0.4030 ca         1 85P      -0.116300
      5 C5          -1.0560    -1.9970    -0.4910 ca         1 85P      -0.173300
      6 C6          -0.2850    -0.8150    -0.3830 ca         1 85P       0.392600
      7 C7          -0.0900     1.6100    -0.2900 ca         1 85P      -0.075600
      8 C8           1.2570     1.4000    -0.1690 ca         1 85P      -0.236300
      9 C9           1.8020     0.0960    -0.1610 cp         1 85P       0.475800
     10 C10          3.2610    -0.1240    -0.0480 cp         1 85P      -0.124500
     11 C11          3.8170    -1.3320    -0.4740 ca         1 85P      -0.094500
     12 C12          4.1110     0.8440     0.4840 ca         1 85P      -0.094500
     13 C13          5.4750     0.6230     0.5880 ca         1 85P      -0.137000
     14 C14          5.9990    -0.5820     0.1490 ca         1 85P       0.026400
     15 C15          5.1780    -1.5650    -0.3840 ca         1 85P      -0.137000
     16 CL16         7.7030    -0.8650     0.2680 cl         1 85P      -0.138400
     17 O17         -4.4150    -0.6330    -0.8050 os         1 85P      -0.475800
     18 C18         -0.5870     3.0680    -0.3110 c          1 85P       0.929200
     19 O19          0.2740     3.9300    -0.0720 o          1 85P      -0.804300
     20 O20         -1.7880     3.2650    -0.5670 o          1 85P      -0.804300
     21 S21         -5.3670    -0.5120     0.4500 s6         1 85P       1.721200
     22 O22         -4.8690     0.4140     1.4170 o          1 85P      -0.623800
     23 O23         -6.6990    -0.4780    -0.0590 o          1 85P      -0.623800
     24 N24          1.0490    -0.9690    -0.2670 nb         1 85P      -0.708000
     25 H1          -3.0060    -2.8420    -0.7050 ha         1 85P       0.137000
     26 H2          -2.8360     1.4460    -0.5600 ha         1 85P       0.213000
     27 H3          -0.5410    -2.9480    -0.4800 ha         1 85P       0.139000
     28 H4           1.9070     2.2600    -0.0990 ha         1 85P       0.167000
     29 H5           3.1780    -2.0990    -0.8890 ha         1 85P       0.153500
     30 H6           3.7210     1.7860     0.8480 ha         1 85P       0.153500
     31 H7           6.1170     1.3830     1.0120 ha         1 85P       0.139000
     32 H8           5.5930    -2.5020    -0.7280 ha         1 85P       0.139000
     33 F1          -5.1420    -1.9550     1.0690 f          1 85P      -0.291900
@<TRIPOS>BOND
     1     1     2 ar  
     2     1     3 ar  
     3     1    17 1   
     4     2     5 ar  
     5     2    25 1   
     6     3     4 ar  
     7     3    26 1   
     8     4     6 ar  
     9     4     7 ar  
    10     5     6 ar  
    11     5    27 1   
    12     6    24 ar  
    13     7     8 ar  
    14     7    18 1   
    15     8     9 ar  
    16     8    28 1   
    17     9    10 1   
    18     9    24 ar  
    19    10    11 ar  
    20    10    12 ar  
    21    11    15 ar  
    22    11    29 1   
    23    12    13 ar  
    24    12    30 1   
    25    13    14 ar  
    26    13    31 1   
    27    14    15 ar  
    28    14    16 1   
    29    15    32 1   
    30    17    21 1   
    31    18    19 1   
    32    18    20 1   
    33    21    22 2   
    34    21    23 2   
    35    21    33 1   
@<TRIPOS>SUBSTRUCTURE
     1 85P         1 TEMP              0 ****  ****    0 ROOT
