@<TRIPOS>MOLECULE
85Q
   43    45     1     0     0
SMALL
abcg2


@<TRIPOS>ATOM
      1 C4           9.7900   -51.3650     4.7210 c5         1 85Q      -0.032400
      2 C14         13.8750   -48.1660     2.9760 ca         1 85Q      -0.006000
      3 C5           9.4280   -52.5510     5.5730 ca         1 85Q      -0.083300
      4 C6           9.3960   -52.4320     6.9590 ca         1 85Q      -0.103000
      5 C11         11.0200   -51.5690     3.8320 c5         1 85Q      -0.079400
      6 C7           9.0760   -53.5190     7.7630 ca         1 85Q      -0.108000
      7 C8           8.7820   -54.7470     7.1870 ca         1 85Q      -0.104000
      8 C9           8.8120   -54.8780     5.8040 ca         1 85Q      -0.108000
      9 C10          9.1320   -53.7900     5.0060 ca         1 85Q      -0.103000
     10 C12         10.8970   -50.4680     2.7710 c5         1 85Q       0.028700
     11 C13         11.6250   -49.2000     3.2080 c          1 85Q       0.605100
     12 N1           9.4700   -50.2410     2.6920 n          1 85Q      -0.409800
     13 N2          12.8840   -49.1110     2.7110 ns         1 85Q      -0.140000
     14 C3           8.7140   -50.9530     3.7130 c5         1 85Q       0.115000
     15 C1           7.4660   -49.2960     1.7410 c3         1 85Q       0.028600
     16 C15         15.0840   -48.3110     2.2890 ca         1 85Q      -0.169000
     17 C16         16.1210   -47.4220     2.5000 ca         1 85Q      -0.073000
     18 C17         15.9880   -46.3690     3.3950 ca         1 85Q      -0.132000
     19 C18         14.7860   -46.2410     4.0670 ca         1 85Q       0.147000
     20 C19         13.7230   -47.1110     3.8770 ca         1 85Q      -0.130000
     21 C2           8.9800   -49.4220     1.7460 c          1 85Q       0.607100
     22 O1           9.6980   -48.8330     0.9590 o          1 85Q      -0.567100
     23 O2          11.1210   -48.3990     3.9690 o          1 85Q      -0.564100
     24 CL1         14.5850   -44.9390     5.1970 cl         1 85Q      -0.203000
     25 H1           9.9760   -50.5140     5.3810 hc         1 85Q       0.082700
     26 H2           9.6240   -51.4770     7.4170 ha         1 85Q       0.112500
     27 H3          10.9850   -52.5420     3.3380 hc         1 85Q       0.063700
     28 H4          11.9550   -51.5210     4.3900 hc         1 85Q       0.063700
     29 H5           9.0560   -53.4040     8.8390 ha         1 85Q       0.115500
     30 H6           8.5330   -55.5960     7.8100 ha         1 85Q       0.116000
     31 H7           8.5850   -55.8320     5.3460 ha         1 85Q       0.115500
     32 H8           9.1490   -53.9140     3.9290 ha         1 85Q       0.112500
     33 H9          11.2840   -50.8130     1.8090 h1         1 85Q       0.076700
     34 H10         13.1530   -49.8300     2.0550 hn         1 85Q       0.153000
     35 H11          7.9590   -50.3170     4.1760 h1         1 85Q       0.052200
     36 H12          8.2080   -51.8250     3.2880 h1         1 85Q       0.052200
     37 H13          6.9920   -50.2750     1.6690 h1         1 85Q       0.081200
     38 H14          7.1190   -48.8230     2.6600 h1         1 85Q       0.081200
     39 H16         15.2100   -49.1250     1.5860 ha         1 85Q       0.113000
     40 H17         17.0490   -47.5490     1.9590 ha         1 85Q       0.117000
     41 H18         16.7980   -45.6730     3.5620 ha         1 85Q       0.132000
     42 H19         12.8050   -46.9680     4.4210 ha         1 85Q       0.162000
     43 CL           6.9060   -48.3120     0.3740 cl         1 85Q      -0.221000
@<TRIPOS>BOND
     1     1     3 1   
     2     1     5 1   
     3     1    14 1   
     4     1    25 1   
     5     2    13 1   
     6     2    16 ar  
     7     2    20 ar  
     8     3     4 ar  
     9     3     9 ar  
    10     4     6 ar  
    11     4    26 1   
    12     5    10 1   
    13     5    27 1   
    14     5    28 1   
    15     6     7 ar  
    16     6    29 1   
    17     7     8 ar  
    18     7    30 1   
    19     8     9 ar  
    20     8    31 1   
    21     9    32 1   
    22    10    11 1   
    23    10    12 1   
    24    10    33 1   
    25    11    13 1   
    26    11    23 2   
    27    12    14 1   
    28    12    21 1   
    29    13    34 1   
    30    14    35 1   
    31    14    36 1   
    32    15    21 1   
    33    15    37 1   
    34    15    38 1   
    35    15    43 1   
    36    16    17 ar  
    37    16    39 1   
    38    17    18 ar  
    39    17    40 1   
    40    18    19 ar  
    41    18    41 1   
    42    19    20 ar  
    43    19    24 1   
    44    20    42 1   
    45    21    22 2   
@<TRIPOS>SUBSTRUCTURE
     1 85Q         1 TEMP              0 ****  ****    0 ROOT
