@<TRIPOS>MOLECULE
85Q
   43    45     1     0     0
SMALL
No Charge or Current Charge


@<TRIPOS>ATOM
      1 C4           9.7950   -51.1990     4.6970 c5         1 85Q      -0.032400
      2 C14         13.9290   -48.1920     3.1380 ca         1 85Q      -0.006000
      3 C5           9.5240   -52.4710     5.5130 ca         1 85Q      -0.083300
      4 C6           9.5820   -52.4050     6.9210 ca         1 85Q      -0.103000
      5 C11         10.9740   -51.4450     3.7140 c5         1 85Q      -0.079400
      6 C7           9.3410   -53.5440     7.7080 ca         1 85Q      -0.108000
      7 C8           9.0380   -54.7700     7.0970 ca         1 85Q      -0.104000
      8 C9           8.9770   -54.8540     5.6970 ca         1 85Q      -0.108000
      9 C10          9.2180   -53.7140     4.9110 ca         1 85Q      -0.103000
     10 C12         10.7800   -50.2820     2.6900 c5         1 85Q       0.028700
     11 C13         11.4850   -48.9850     3.2070 c          1 85Q       0.605100
     12 N1           9.2900   -50.1880     2.6400 n          1 85Q      -0.409800
     13 N2          12.8390   -49.0730     2.9010 ns         1 85Q      -0.140000
     14 C3           8.6090   -50.9280     3.7280 c5         1 85Q       0.115000
     15 C1           7.0700   -49.4440     1.6790 c3         1 85Q       0.028600
     16 C15         15.1940   -48.5770     2.6530 ca         1 85Q      -0.169000
     17 C16         16.3200   -47.7590     2.8500 ca         1 85Q      -0.073000
     18 C17         16.1890   -46.5440     3.5390 ca         1 85Q      -0.132000
     19 C18         14.9340   -46.1510     4.0280 ca         1 85Q       0.147000
     20 C19         13.8080   -46.9670     3.8320 ca         1 85Q      -0.130000
     21 C2           8.6120   -49.4660     1.6350 c          1 85Q       0.607100
     22 O1           9.2460   -48.8840     0.7620 o          1 85Q      -0.567100
     23 O2          10.9460   -48.0330     3.7650 o          1 85Q      -0.564100
     24 Cl1         14.7710   -44.6290     4.8940 cl         1 85Q      -0.203000
     25 H1           9.9840   -50.3240     5.3300 hc         1 85Q       0.082700
     26 H2           9.8160   -51.4630     7.4130 ha         1 85Q       0.112500
     27 H3          10.8960   -52.4100     3.2020 hc         1 85Q       0.063700
     28 H4          11.9510   -51.4310     4.2140 hc         1 85Q       0.063700
     29 H5           9.3900   -53.4760     8.7930 ha         1 85Q       0.115500
     30 H6           8.8510   -55.6530     7.7050 ha         1 85Q       0.116000
     31 H7           8.7420   -55.8030     5.2200 ha         1 85Q       0.115500
     32 H8           9.1650   -53.8080     3.8290 ha         1 85Q       0.112500
     33 H9          11.2010   -50.5400     1.7080 h1         1 85Q       0.076700
     34 H10         13.1020   -49.9270     2.4260 hn         1 85Q       0.153000
     35 H11          7.8240   -50.3360     4.2160 h1         1 85Q       0.052200
     36 H12          8.1570   -51.8470     3.3350 h1         1 85Q       0.052200
     37 H13          6.7050   -50.4780     1.6750 h1         1 85Q       0.081200
     38 H14          6.7530   -48.9550     2.6070 h1         1 85Q       0.081200
     39 H16         15.3080   -49.5170     2.1170 ha         1 85Q       0.113000
     40 H17         17.2920   -48.0680     2.4690 ha         1 85Q       0.117000
     41 H18         17.0570   -45.9070     3.6940 ha         1 85Q       0.132000
     42 H19         12.8580   -46.6290     4.2290 ha         1 85Q       0.162000
     43 Cl           6.2780   -48.5670     0.2830 cl         1 85Q      -0.221000
@<TRIPOS>BOND
     1     1     3 1   
     2     1     5 1   
     3     1    14 1   
     4     1    25 1   
     5     2    13 1   
     6     2    16 ar  
     7     2    20 ar  
     8     3     4 ar  
     9     3     9 ar  
    10     4     6 ar  
    11     4    26 1   
    12     5    10 1   
    13     5    27 1   
    14     5    28 1   
    15     6     7 ar  
    16     6    29 1   
    17     7     8 ar  
    18     7    30 1   
    19     8     9 ar  
    20     8    31 1   
    21     9    32 1   
    22    10    11 1   
    23    10    12 1   
    24    10    33 1   
    25    11    13 1   
    26    11    23 2   
    27    12    14 1   
    28    12    21 1   
    29    13    34 1   
    30    14    35 1   
    31    14    36 1   
    32    15    21 1   
    33    15    37 1   
    34    15    38 1   
    35    15    43 1   
    36    16    17 ar  
    37    16    39 1   
    38    17    18 ar  
    39    17    40 1   
    40    18    19 ar  
    41    18    41 1   
    42    19    20 ar  
    43    19    24 1   
    44    20    42 1   
    45    21    22 2   
@<TRIPOS>SUBSTRUCTURE
     1 85Q         1 TEMP              0 ****  ****    0 ROOT
