@<TRIPOS>MOLECULE
85R
  133   133     1     0     0
SMALL
No Charge or Current Charge


@<TRIPOS>ATOM
      1 C2         162.3530   144.2280   140.7460 c6         1 85R       0.160800
      2 C3         162.2140   145.0620   142.0610 c6         1 85R       0.124800
      3 C4         161.6700   144.1860   143.2530 c6         1 85R       0.097300
      4 C5         160.7860   142.9880   142.7700 c6         1 85R       0.124800
      5 C6         159.9850   143.3660   141.4990 c6         1 85R       0.160800
      6 CA2        167.4480   143.2540   134.6730 c3         1 85R      -0.138400
      7 CA3        167.3150   144.4720   133.7220 c3         1 85R      -0.059400
      8 CA4        166.3230   144.3120   132.5450 c3         1 85R      -0.078400
      9 CA5        166.7050   143.2110   131.5240 c3         1 85R      -0.073400
     10 CA6        165.7240   143.0840   130.3330 c3         1 85R      -0.077400
     11 CA7        165.7420   144.2880   129.3560 c3         1 85R      -0.073400
     12 CA8        164.6750   144.2290   128.2360 c3         1 85R      -0.074400
     13 CA9        164.7380   142.9990   127.2990 c3         1 85R      -0.076400
     14 CAA        166.0770   142.8410   126.5410 c3         1 85R      -0.075400
     15 CAB        166.0560   141.7690   125.4270 c3         1 85R      -0.074400
     16 CAC        165.7640   140.3330   125.9260 c3         1 85R      -0.075400
     17 CAD        165.9640   139.2350   124.8510 c3         1 85R      -0.071400
     18 CAE        165.1140   139.3860   123.5620 c3         1 85R      -0.070400
     19 CAF        163.5810   139.4430   123.7720 c3         1 85R      -0.077400
     20 CAG        162.9800   138.1840   124.4280 c3         1 85R      -0.089100
     21 OA2        165.4770   141.8390   134.7880 o          1 85R      -0.471000
     22 CB2        162.1600   142.4620   132.5910 c3         1 85R      -0.144400
     23 CB3        161.7100   142.8230   131.1560 c3         1 85R      -0.067400
     24 CB4        161.5570   141.5720   130.2620 c3         1 85R      -0.079400
     25 CB5        161.2430   141.9010   128.7880 c3         1 85R      -0.076400
     26 CB6        161.0000   140.6380   127.9310 c3         1 85R      -0.076400
     27 CB7        160.9030   140.8790   126.4050 c3         1 85R      -0.073400
     28 CB8        159.7920   141.8650   125.9510 c3         1 85R      -0.072400
     29 CB9        160.2370   143.3470   125.8060 c3         1 85R      -0.074400
     30 CBA        160.7390   143.7580   124.3980 c3         1 85R      -0.073400
     31 CBB        161.9510   142.9510   123.8660 c3         1 85R      -0.078400
     32 CBC        162.5860   143.5100   122.5690 c3         1 85R      -0.073400
     33 CBD        163.7850   144.4700   122.7780 c3         1 85R      -0.073400
     34 CBE        163.4670   145.7670   123.5600 c3         1 85R      -0.075400
     35 CBF        164.6280   146.7880   123.5960 c3         1 85R      -0.073400
     36 CBG        165.8660   146.3150   124.3860 c3         1 85R      -0.091100
     37 OB1        162.9760   143.2070   134.7050 os         1 85R      -0.426100
     38 OB2        162.1350   144.8050   133.2850 o          1 85R      -0.508000
     39 P1         159.9630   143.4760   137.8470 p5         1 85R       1.404800
     40 C1         160.9830   143.5690   140.2960 c6         1 85R       0.270300
     41 O1         160.3500   144.2750   139.1950 os         1 85R      -0.584400
     42 O2         162.9180   145.0650   139.7200 oh         1 85R      -0.679500
     43 O3         161.3560   146.1980   141.8230 oh         1 85R      -0.695000
     44 O4         162.7410   143.6650   144.0630 oh         1 85R      -0.729000
     45 O5         159.9140   142.5450   143.8280 oh         1 85R      -0.695000
     46 O6         158.9920   142.3540   141.2580 oh         1 85R      -0.679500
     47 C7         161.9420   144.5460   136.4760 c3         1 85R       0.205600
     48 C8         163.2680   144.1530   135.7610 c3         1 85R       0.153300
     49 C9         164.3000   143.5040   136.7280 c3         1 85R       0.166600
     50 O11        159.4370   142.1080   138.1200 o          1 85R      -0.809500
     51 O12        159.0180   144.2650   137.0020 o          1 85R      -0.809500
     52 O13        161.4230   143.4020   137.1720 os         1 85R      -0.583400
     53 H1         163.0520   143.4070   140.9610 h1         1 85R       0.046200
     54 H2         163.2150   145.4280   142.3330 h1         1 85R       0.030700
     55 H3         161.0380   144.8380   143.8770 h1         1 85R       0.038700
     56 H4         161.4570   142.1590   142.4960 h1         1 85R       0.030700
     57 H5         159.4790   144.3230   141.6920 h1         1 85R       0.046200
     58 H6         167.9400   142.4240   134.1540 hc         1 85R       0.060700
     59 H7         168.0640   143.6010   135.5110 hc         1 85R       0.060700
     60 H8         168.3070   144.7200   133.3240 hc         1 85R       0.041700
     61 H9         167.0000   145.3400   134.3150 hc         1 85R       0.041700
     62 H10        166.2700   145.2790   132.0320 hc         1 85R       0.048700
     63 H11        165.3160   144.1170   132.9320 hc         1 85R       0.048700
     64 H12        166.7410   142.2450   132.0400 hc         1 85R       0.033700
     65 H13        167.7160   143.4010   131.1410 hc         1 85R       0.033700
     66 H14        164.7110   142.9380   130.7210 hc         1 85R       0.041200
     67 H15        165.9800   142.1730   129.7790 hc         1 85R       0.041200
     68 H16        166.7400   144.3770   128.9100 hc         1 85R       0.035700
     69 H17        165.5720   145.2150   129.9140 hc         1 85R       0.035700
     70 H18        164.7610   145.1370   127.6270 hc         1 85R       0.039200
     71 H19        163.6800   144.2690   128.6960 hc         1 85R       0.039200
     72 H20        163.9260   143.0920   126.5690 hc         1 85R       0.038700
     73 H21        164.5300   142.0910   127.8760 hc         1 85R       0.038700
     74 H22        166.8740   142.5980   127.2530 hc         1 85R       0.036700
     75 H23        166.3460   143.8020   126.0870 hc         1 85R       0.036700
     76 H24        165.3090   142.0540   124.6770 hc         1 85R       0.034200
     77 H25        167.0300   141.7790   124.9210 hc         1 85R       0.034200
     78 H26        166.4270   140.1100   126.7710 hc         1 85R       0.040700
     79 H27        164.7400   140.2780   126.3140 hc         1 85R       0.040700
     80 H28        165.7580   138.2580   125.3050 hc         1 85R       0.034200
     81 H29        167.0230   139.2150   124.5650 hc         1 85R       0.034200
     82 H30        165.4280   140.2900   123.0280 hc         1 85R       0.032700
     83 H31        165.3450   138.5470   122.8940 hc         1 85R       0.032700
     84 H32        163.3280   140.3210   124.3740 hc         1 85R       0.038200
     85 H33        163.1030   139.5910   122.7960 hc         1 85R       0.038200
     86 H34        161.8860   138.2530   124.4500 hc         1 85R       0.030700
     87 H35        163.2540   137.2840   123.8660 hc         1 85R       0.030700
     88 H36        163.3320   138.0720   125.4600 hc         1 85R       0.030700
     89 H37        161.4580   141.7780   133.0800 hc         1 85R       0.075700
     90 H38        163.0730   141.8560   132.5950 hc         1 85R       0.075700
     91 H39        162.4390   143.5080   130.7080 hc         1 85R       0.050200
     92 H40        160.7530   143.3590   131.1970 hc         1 85R       0.050200
     93 H41        160.7610   140.9370   130.6700 hc         1 85R       0.037200
     94 H42        162.4850   140.9870   130.3020 hc         1 85R       0.037200
     95 H43        162.0800   142.4680   128.3660 hc         1 85R       0.038700
     96 H44        160.3580   142.5470   128.7440 hc         1 85R       0.038700
     97 H45        160.0820   140.1460   128.2750 hc         1 85R       0.036200
     98 H46        161.8170   139.9270   128.1090 hc         1 85R       0.036200
     99 H47        160.7150   139.9100   125.9270 hc         1 85R       0.034700
    100 H48        161.8800   141.2130   126.0410 hc         1 85R       0.034700
    101 H49        158.9590   141.8090   126.6630 hc         1 85R       0.036700
    102 H50        159.3830   141.5260   124.9910 hc         1 85R       0.036700
    103 H51        161.0100   143.5860   126.5450 hc         1 85R       0.042200
    104 H52        159.3790   143.9850   126.0500 hc         1 85R       0.042200
    105 H53        160.9870   144.8240   124.4280 hc         1 85R       0.033700
    106 H54        159.9120   143.6600   123.6840 hc         1 85R       0.033700
    107 H55        161.6130   141.9270   123.6650 hc         1 85R       0.040200
    108 H56        162.7230   142.8800   124.6390 hc         1 85R       0.040200
    109 H57        161.8180   144.0010   121.9590 hc         1 85R       0.034700
    110 H58        162.9470   142.6600   121.9760 hc         1 85R       0.034700
    111 H59        164.5850   143.9250   123.2920 hc         1 85R       0.034700
    112 H60        164.1800   144.7420   121.7920 hc         1 85R       0.034700
    113 H61        163.1920   145.5160   124.5920 hc         1 85R       0.039700
    114 H62        162.5950   146.2510   123.1040 hc         1 85R       0.039700
    115 H63        164.2620   147.7170   124.0490 hc         1 85R       0.033200
    116 H64        164.9270   147.0370   122.5700 hc         1 85R       0.033200
    117 H65        166.6250   147.1060   124.4120 hc         1 85R       0.031367
    118 H66        165.5930   146.0720   125.4200 hc         1 85R       0.031367
    119 H67        166.3160   145.4290   123.9260 hc         1 85R       0.031367
    120 H68        161.2560   142.5620   139.9460 h1         1 85R       0.075700
    121 H69        162.2940   145.8250   139.6690 ho         1 85R       0.488000
    122 H70        161.5050   146.8360   142.5580 ho         1 85R       0.490500
    123 H71        163.1550   144.4280   144.5320 ho         1 85R       0.495000
    124 H72        160.4900   142.4550   144.6240 ho         1 85R       0.490500
    125 H73        158.7900   142.0170   142.1640 ho         1 85R       0.488000
    126 H74        162.1460   145.3640   137.1780 h1         1 85R       0.041700
    127 H75        161.2230   144.9200   135.7370 h1         1 85R       0.041700
    128 H76        163.7190   145.0650   135.3480 h1         1 85R       0.049700
    129 H77        164.2370   144.0250   137.6910 h1         1 85R       0.085200
    130 H78        164.0430   142.4520   136.9130 h1         1 85R       0.085200
    131 CA1        166.0980   142.7940   135.2300 c          1 85R       0.595100
    132 CB1        162.3880   143.6370   133.5470 c          1 85R       0.604100
    133 OA1        165.6420   143.6530   136.2000 os         1 85R      -0.470100
@<TRIPOS>BOND
     1     1     2 1   
     2     1    40 1   
     3     1    42 1   
     4     1    53 1   
     5     2     3 1   
     6     2    43 1   
     7     2    54 1   
     8     3     4 1   
     9     3    44 1   
    10     3    55 1   
    11     4     5 1   
    12     4    45 1   
    13     4    56 1   
    14     5    40 1   
    15     5    46 1   
    16     5    57 1   
    17     6     7 1   
    18     6    58 1   
    19     6    59 1   
    20     6   131 1   
    21     7     8 1   
    22     7    60 1   
    23     7    61 1   
    24     8     9 1   
    25     8    62 1   
    26     8    63 1   
    27     9    10 1   
    28     9    64 1   
    29     9    65 1   
    30    10    11 1   
    31    10    66 1   
    32    10    67 1   
    33    11    12 1   
    34    11    68 1   
    35    11    69 1   
    36    12    13 1   
    37    12    70 1   
    38    12    71 1   
    39    13    14 1   
    40    13    72 1   
    41    13    73 1   
    42    14    15 1   
    43    14    74 1   
    44    14    75 1   
    45    15    16 1   
    46    15    76 1   
    47    15    77 1   
    48    16    17 1   
    49    16    78 1   
    50    16    79 1   
    51    17    18 1   
    52    17    80 1   
    53    17    81 1   
    54    18    19 1   
    55    18    82 1   
    56    18    83 1   
    57    19    20 1   
    58    19    84 1   
    59    19    85 1   
    60    20    86 1   
    61    20    87 1   
    62    20    88 1   
    63    21   131 2   
    64    22    23 1   
    65    22    89 1   
    66    22    90 1   
    67    22   132 1   
    68    23    24 1   
    69    23    91 1   
    70    23    92 1   
    71    24    25 1   
    72    24    93 1   
    73    24    94 1   
    74    25    26 1   
    75    25    95 1   
    76    25    96 1   
    77    26    27 1   
    78    26    97 1   
    79    26    98 1   
    80    27    28 1   
    81    27    99 1   
    82    27   100 1   
    83    28    29 1   
    84    28   101 1   
    85    28   102 1   
    86    29    30 1   
    87    29   103 1   
    88    29   104 1   
    89    30    31 1   
    90    30   105 1   
    91    30   106 1   
    92    31    32 1   
    93    31   107 1   
    94    31   108 1   
    95    32    33 1   
    96    32   109 1   
    97    32   110 1   
    98    33    34 1   
    99    33   111 1   
   100    33   112 1   
   101    34    35 1   
   102    34   113 1   
   103    34   114 1   
   104    35    36 1   
   105    35   115 1   
   106    35   116 1   
   107    36   117 1   
   108    36   118 1   
   109    36   119 1   
   110    37    48 1   
   111    37   132 1   
   112    38   132 2   
   113    39    41 1   
   114    39    50 1   
   115    39    51 1   
   116    39    52 1   
   117    40    41 1   
   118    40   120 1   
   119    42   121 1   
   120    43   122 1   
   121    44   123 1   
   122    45   124 1   
   123    46   125 1   
   124    47    48 1   
   125    47    52 1   
   126    47   126 1   
   127    47   127 1   
   128    48    49 1   
   129    48   128 1   
   130    49   129 1   
   131    49   130 1   
   132    49   133 1   
   133   131   133 1   
@<TRIPOS>SUBSTRUCTURE
     1 85R         1 TEMP              0 ****  ****    0 ROOT
