@<TRIPOS>MOLECULE
85R
  133   133     1     0     0
SMALL
abcg2


@<TRIPOS>ATOM
      1 C2         162.2510   143.7350   141.0460 c6         1 85R       0.160800
      2 C3         162.2000   145.0440   141.8200 c6         1 85R       0.124800
      3 C4         161.4370   144.8150   143.1470 c6         1 85R       0.097300
      4 C5         160.3880   143.7020   143.0490 c6         1 85R       0.124800
      5 C6         159.7930   143.6340   141.6480 c6         1 85R       0.160800
      6 CA2        167.3560   142.6710   134.6080 c3         1 85R      -0.138400
      7 CA3        167.3850   143.9580   133.7850 c3         1 85R      -0.059400
      8 CA4        166.3830   144.0080   132.6350 c3         1 85R      -0.078400
      9 CA5        166.6790   143.0210   131.5100 c3         1 85R      -0.073400
     10 CA6        165.6630   143.0520   130.3700 c3         1 85R      -0.077400
     11 CA7        165.6220   144.3690   129.6020 c3         1 85R      -0.073400
     12 CA8        164.5730   144.4170   128.4920 c3         1 85R      -0.074400
     13 CA9        164.6960   143.3290   127.4270 c3         1 85R      -0.076400
     14 CAA        166.0530   143.3070   126.7340 c3         1 85R      -0.075400
     15 CAB        166.1360   142.3460   125.5540 c3         1 85R      -0.074400
     16 CAC        165.9390   140.8810   125.9330 c3         1 85R      -0.075400
     17 CAD        166.3030   139.9060   124.8170 c3         1 85R      -0.071400
     18 CAE        165.5470   140.1170   123.5050 c3         1 85R      -0.070400
     19 CAF        164.0260   140.1010   123.6330 c3         1 85R      -0.077400
     20 CAG        163.4650   138.8050   124.2020 c3         1 85R      -0.089100
     21 OA2        165.5570   141.2960   135.4150 o          1 85R      -0.471000
     22 CB2        162.3430   142.3380   132.6420 c3         1 85R      -0.144400
     23 CB3        161.8260   142.7450   131.2740 c3         1 85R      -0.067400
     24 CB4        161.7300   141.5460   130.3410 c3         1 85R      -0.079400
     25 CB5        161.3500   141.9130   128.9130 c3         1 85R      -0.076400
     26 CB6        161.1210   140.6820   128.0440 c3         1 85R      -0.076400
     27 CB7        160.9590   140.9690   126.5540 c3         1 85R      -0.073400
     28 CB8        159.8120   141.9350   126.2160 c3         1 85R      -0.072400
     29 CB9        160.2340   143.3960   126.0090 c3         1 85R      -0.074400
     30 CBA        160.5460   143.7560   124.5570 c3         1 85R      -0.073400
     31 CBB        161.6180   142.8920   123.9020 c3         1 85R      -0.078400
     32 CBC        161.9740   143.3080   122.4670 c3         1 85R      -0.073400
     33 CBD        163.2870   144.0760   122.3480 c3         1 85R      -0.073400
     34 CBE        163.3030   145.4110   123.0850 c3         1 85R      -0.075400
     35 CBF        164.5590   146.2390   122.8310 c3         1 85R      -0.073400
     36 CBG        165.8390   145.6020   123.3570 c3         1 85R      -0.091100
     37 OB1        162.9940   143.0440   134.7680 os         1 85R      -0.426100
     38 OB2        162.1670   144.6190   133.4080 o          1 85R      -0.508000
     39 P1         160.1490   142.8070   138.0540 p5         1 85R       1.404800
     40 C1         160.8560   143.2400   140.6200 c6         1 85R       0.270300
     41 O1         160.4680   143.7450   139.3650 os         1 85R      -0.584400
     42 O2         163.0780   143.7800   139.9130 oh         1 85R      -0.679500
     43 O3         161.5980   146.0310   141.0180 oh         1 85R      -0.695000
     44 O4         162.3090   144.4480   144.1940 oh         1 85R      -0.729000
     45 O5         159.3190   143.9070   143.9470 oh         1 85R      -0.695000
     46 O6         158.7510   142.6900   141.5730 oh         1 85R      -0.679500
     47 C7         161.9500   144.1460   136.6670 c3         1 85R       0.205600
     48 C8         163.2080   143.9670   135.8390 c3         1 85R       0.153300
     49 C9         164.3630   143.4260   136.6600 c3         1 85R       0.166600
     50 O11        160.0290   141.3680   138.4390 o          1 85R      -0.809500
     51 O12        159.0780   143.5350   137.3050 o          1 85R      -0.809500
     52 O13        161.5570   142.9070   137.2050 os         1 85R      -0.583400
     53 H1         162.6350   142.9900   141.7590 h1         1 85R       0.046200
     54 H2         163.2310   145.3340   142.0800 h1         1 85R       0.030700
     55 H3         160.9070   145.7470   143.3890 h1         1 85R       0.038700
     56 H4         160.8810   142.7410   143.2650 h1         1 85R       0.030700
     57 H5         159.4230   144.6360   141.3870 h1         1 85R       0.046200
     58 H6         167.5890   141.8010   133.9950 hc         1 85R       0.060700
     59 H7         168.1380   142.7210   135.3740 hc         1 85R       0.060700
     60 H8         168.3950   144.0710   133.3820 hc         1 85R       0.041700
     61 H9         167.2290   144.8140   134.4440 hc         1 85R       0.041700
     62 H10        166.3810   145.0260   132.2370 hc         1 85R       0.048700
     63 H11        165.3690   143.8370   133.0120 hc         1 85R       0.048700
     64 H12        166.7130   142.0050   131.9130 hc         1 85R       0.033700
     65 H13        167.6790   143.2220   131.1110 hc         1 85R       0.033700
     66 H14        164.6670   142.8320   130.7700 hc         1 85R       0.041200
     67 H15        165.8910   142.2350   129.6780 hc         1 85R       0.041200
     68 H16        166.6160   144.5720   129.1890 hc         1 85R       0.035700
     69 H17        165.4190   145.1930   130.2920 hc         1 85R       0.035700
     70 H18        164.6250   145.3960   128.0050 hc         1 85R       0.039200
     71 H19        163.5770   144.3590   128.9430 hc         1 85R       0.039200
     72 H20        163.9110   143.4870   126.6760 hc         1 85R       0.038700
     73 H21        164.4850   142.3520   127.8710 hc         1 85R       0.038700
     74 H22        166.8330   143.0510   127.4580 hc         1 85R       0.036700
     75 H23        166.2870   144.3190   126.3860 hc         1 85R       0.036700
     76 H24        165.3950   142.6370   124.8010 hc         1 85R       0.034200
     77 H25        167.1130   142.4610   125.0740 hc         1 85R       0.034200
     78 H26        166.5560   140.6540   126.8090 hc         1 85R       0.040700
     79 H27        164.9040   140.7130   126.2500 hc         1 85R       0.040700
     80 H28        166.1430   138.8840   125.1730 hc         1 85R       0.034200
     81 H29        167.3760   139.9840   124.6140 hc         1 85R       0.034200
     82 H30        165.8510   141.0680   123.0570 hc         1 85R       0.032700
     83 H31        165.8550   139.3420   122.7960 hc         1 85R       0.032700
     84 H32        163.6980   140.9390   124.2540 hc         1 85R       0.038200
     85 H33        163.5900   140.2810   122.6470 hc         1 85R       0.038200
     86 H34        162.3750   138.8250   124.2220 hc         1 85R       0.030700
     87 H35        163.7700   137.9430   123.6040 hc         1 85R       0.030700
     88 H36        163.8040   138.6320   125.2250 hc         1 85R       0.030700
     89 H37        161.6860   141.5840   133.0890 hc         1 85R       0.075700
     90 H38        163.3210   141.8520   132.5540 hc         1 85R       0.075700
     91 H39        162.4850   143.5000   130.8370 hc         1 85R       0.050200
     92 H40        160.8420   143.2140   131.3670 hc         1 85R       0.050200
     93 H41        161.0010   140.8340   130.7440 hc         1 85R       0.037200
     94 H42        162.6890   141.0160   130.3250 hc         1 85R       0.037200
     95 H43        162.1430   142.5270   128.4760 hc         1 85R       0.038700
     96 H44        160.4500   142.5370   128.9200 hc         1 85R       0.038700
     97 H45        160.2370   140.1490   128.4110 hc         1 85R       0.036200
     98 H46        161.9640   139.9950   128.1750 hc         1 85R       0.036200
     99 H47        160.8040   140.0170   126.0380 hc         1 85R       0.034700
    100 H48        161.9050   141.3640   126.1720 hc         1 85R       0.034700
    101 H49        159.0630   141.8780   127.0120 hc         1 85R       0.036700
    102 H50        159.2940   141.5930   125.3140 hc         1 85R       0.036700
    103 H51        161.1050   143.6210   126.6340 hc         1 85R       0.042200
    104 H52        159.4390   144.0610   126.3580 hc         1 85R       0.042200
    105 H53        160.8440   144.8080   124.5070 hc         1 85R       0.033700
    106 H54        159.6260   143.6760   123.9670 hc         1 85R       0.033700
    107 H55        161.2810   141.8530   123.9020 hc         1 85R       0.040200
    108 H56        162.5250   142.9060   124.5180 hc         1 85R       0.040200
    109 H57        161.1600   143.9060   122.0420 hc         1 85R       0.034700
    110 H58        162.0430   142.4170   121.8370 hc         1 85R       0.034700
    111 H59        164.0970   143.4370   122.7160 hc         1 85R       0.034700
    112 H60        163.5010   144.2560   121.2890 hc         1 85R       0.034700
    113 H61        163.1950   145.2450   124.1630 hc         1 85R       0.039700
    114 H62        162.4270   145.9930   122.7810 hc         1 85R       0.039700
    115 H63        164.4350   147.2210   123.2950 hc         1 85R       0.033200
    116 H64        164.6560   146.4240   121.7560 hc         1 85R       0.033200
    117 H65        166.6960   146.2600   123.2110 hc         1 85R       0.031367
    118 H66        165.7610   145.3950   124.4260 hc         1 85R       0.031367
    119 H67        166.0650   144.6590   122.8580 hc         1 85R       0.031367
    120 H68        160.8980   142.1460   140.5880 h1         1 85R       0.075700
    121 H69        163.9850   143.8970   140.2130 ho         1 85R       0.488000
    122 H70        161.6170   146.8650   141.4980 ho         1 85R       0.490500
    123 H71        162.8790   145.1970   144.3970 ho         1 85R       0.495000
    124 H72        159.6210   143.7050   144.8370 ho         1 85R       0.490500
    125 H73        158.1100   142.9070   142.2580 ho         1 85R       0.488000
    126 H74        162.1710   144.8780   137.4520 h1         1 85R       0.041700
    127 H75        161.1650   144.5770   136.0380 h1         1 85R       0.041700
    128 H76        163.4860   144.9480   135.4410 h1         1 85R       0.049700
    129 H77        164.5110   144.0780   137.5200 h1         1 85R       0.085200
    130 H78        164.1680   142.4170   137.0210 h1         1 85R       0.085200
    131 CA1        166.0620   142.3860   135.3280 c          1 85R       0.595100
    132 CB1        162.4770   143.4740   133.6190 c          1 85R       0.604100
    133 OA1        165.5730   143.4830   135.9060 os         1 85R      -0.470100
@<TRIPOS>BOND
     1     1     2 1   
     2     1    40 1   
     3     1    42 1   
     4     1    53 1   
     5     2     3 1   
     6     2    43 1   
     7     2    54 1   
     8     3     4 1   
     9     3    44 1   
    10     3    55 1   
    11     4     5 1   
    12     4    45 1   
    13     4    56 1   
    14     5    40 1   
    15     5    46 1   
    16     5    57 1   
    17     6     7 1   
    18     6    58 1   
    19     6    59 1   
    20     6   131 1   
    21     7     8 1   
    22     7    60 1   
    23     7    61 1   
    24     8     9 1   
    25     8    62 1   
    26     8    63 1   
    27     9    10 1   
    28     9    64 1   
    29     9    65 1   
    30    10    11 1   
    31    10    66 1   
    32    10    67 1   
    33    11    12 1   
    34    11    68 1   
    35    11    69 1   
    36    12    13 1   
    37    12    70 1   
    38    12    71 1   
    39    13    14 1   
    40    13    72 1   
    41    13    73 1   
    42    14    15 1   
    43    14    74 1   
    44    14    75 1   
    45    15    16 1   
    46    15    76 1   
    47    15    77 1   
    48    16    17 1   
    49    16    78 1   
    50    16    79 1   
    51    17    18 1   
    52    17    80 1   
    53    17    81 1   
    54    18    19 1   
    55    18    82 1   
    56    18    83 1   
    57    19    20 1   
    58    19    84 1   
    59    19    85 1   
    60    20    86 1   
    61    20    87 1   
    62    20    88 1   
    63    21   131 2   
    64    22    23 1   
    65    22    89 1   
    66    22    90 1   
    67    22   132 1   
    68    23    24 1   
    69    23    91 1   
    70    23    92 1   
    71    24    25 1   
    72    24    93 1   
    73    24    94 1   
    74    25    26 1   
    75    25    95 1   
    76    25    96 1   
    77    26    27 1   
    78    26    97 1   
    79    26    98 1   
    80    27    28 1   
    81    27    99 1   
    82    27   100 1   
    83    28    29 1   
    84    28   101 1   
    85    28   102 1   
    86    29    30 1   
    87    29   103 1   
    88    29   104 1   
    89    30    31 1   
    90    30   105 1   
    91    30   106 1   
    92    31    32 1   
    93    31   107 1   
    94    31   108 1   
    95    32    33 1   
    96    32   109 1   
    97    32   110 1   
    98    33    34 1   
    99    33   111 1   
   100    33   112 1   
   101    34    35 1   
   102    34   113 1   
   103    34   114 1   
   104    35    36 1   
   105    35   115 1   
   106    35   116 1   
   107    36   117 1   
   108    36   118 1   
   109    36   119 1   
   110    37    48 1   
   111    37   132 1   
   112    38   132 2   
   113    39    41 1   
   114    39    50 1   
   115    39    51 1   
   116    39    52 1   
   117    40    41 1   
   118    40   120 1   
   119    42   121 1   
   120    43   122 1   
   121    44   123 1   
   122    45   124 1   
   123    46   125 1   
   124    47    48 1   
   125    47    52 1   
   126    47   126 1   
   127    47   127 1   
   128    48    49 1   
   129    48   128 1   
   130    49   129 1   
   131    49   130 1   
   132    49   133 1   
   133   131   133 1   
@<TRIPOS>SUBSTRUCTURE
     1 85R         1 TEMP              0 ****  ****    0 ROOT
