@<TRIPOS>MOLECULE
85S
   66    71     1     0     0
SMALL
abcg2


@<TRIPOS>ATOM
      1 C5          -2.8250     1.6520    -0.5950 cc         1 85S      -0.234000
      2 C6          -3.9460     2.5020    -0.8440 cc         1 85S       0.448900
      3 N1          -3.8610     3.7960    -0.5940 nd         1 85S      -0.311000
      4 C7          -0.7390     1.3540     0.1850 cc         1 85S      -0.019300
      5 C8          -1.2270     0.1300    -0.2470 cd         1 85S      -0.221000
      6 C9          -2.5290     0.3010    -0.7400 cd         1 85S      -0.051200
      7 C11         -3.3770    -0.7290    -1.3240 cd         1 85S      -0.086800
      8 C12          0.5740     1.6540     0.7560 ca         1 85S       0.001200
      9 N3          -1.6290     3.5860     0.2020 nc         1 85S      -0.302800
     10 C15         -4.6120    -2.0350    -2.5970 cc         1 85S       0.234900
     11 N4          -1.7220     2.2640    -0.0370 na         1 85S       0.300900
     12 C2          -2.7000     4.2510    -0.0970 cd         1 85S       0.137900
     13 N10         -5.0880     2.0120    -1.3140 nv         1 85S      -1.059900
     14 N13         -3.7310    -1.8710    -0.6850 na         1 85S       0.143800
     15 N14         -4.4700    -2.6670    -1.4480 nd         1 85S      -0.519800
     16 C16         -3.9440    -0.8040    -2.5830 cc         1 85S      -0.243000
     17 C17         -3.4010    -2.2730     0.6720 c6         1 85S       0.097300
     18 C18         -2.3980    -3.4220     0.6940 c6         1 85S      -0.123900
     19 C19         -2.1180    -3.8230     2.1340 c6         1 85S       0.154100
     20 O20         -3.2980    -4.1600     2.8280 os         1 85S      -0.444000
     21 C21         -4.2160    -3.0900     2.8680 c6         1 85S       0.154100
     22 C22         -4.6410    -2.6510     1.4730 c6         1 85S      -0.123900
     23 C23          0.7640     2.6130     1.7550 ca         1 85S      -0.106000
     24 C24          2.0330     2.7930     2.2750 ca         1 85S      -0.086000
     25 C25          3.1180     2.0560     1.8220 ca         1 85S      -0.161000
     26 C26          2.9490     1.0810     0.8310 ca         1 85S       0.291000
     27 C27          1.6590     0.9010     0.3150 ca         1 85S      -0.141000
     28 N28          4.0030     0.2870     0.3770 nh         1 85S      -0.789400
     29 C29          5.2990     0.4580     1.0040 c6         1 85S       0.177800
     30 C30          6.2180    -0.7090     0.6820 c6         1 85S       0.093000
     31 N31          6.3150    -0.9170    -0.7470 n          1 85S      -0.416800
     32 C32          5.0200    -1.1060    -1.3630 c6         1 85S       0.093000
     33 C33          4.1130     0.0720    -1.0600 c6         1 85S       0.177800
     34 C34          7.5030    -0.8840    -1.3920 c          1 85S       0.610100
     35 C35          7.4840    -1.0970    -2.8880 c3         1 85S      -0.176100
     36 O36          8.5580    -0.6960    -0.7980 o          1 85S      -0.604100
     37 H1          -0.6820    -0.8010    -0.2040 ha         1 85S       0.210000
     38 H2          -5.1810    -2.4800    -3.3980 h4         1 85S       0.038100
     39 H3          -2.6390     5.3170     0.0870 h5         1 85S       0.056100
     40 H4          -5.2080     1.0390    -1.5400 hn         1 85S       0.513500
     41 H5          -5.8540     2.6390    -1.4950 hn         1 85S       0.513500
     42 H6          -3.8480    -0.0850    -3.3810 ha         1 85S       0.147000
     43 H7          -2.9420    -1.3980     1.1410 h1         1 85S       0.071700
     44 H8          -2.8000    -4.2740     0.1380 hc         1 85S       0.066950
     45 H9          -1.4620    -3.1280     0.2120 hc         1 85S       0.066950
     46 H10         -1.4650    -4.6960     2.1660 h1         1 85S       0.047950
     47 H11         -1.5930    -3.0030     2.6470 h1         1 85S       0.047950
     48 H12         -5.0820    -3.4320     3.4370 h1         1 85S       0.047950
     49 H13         -3.7850    -2.2340     3.4080 h1         1 85S       0.047950
     50 H14         -5.3230    -1.8010     1.5510 hc         1 85S       0.066950
     51 H15         -5.1760    -3.4620     0.9750 hc         1 85S       0.066950
     52 H16         -0.0620     3.2010     2.1260 ha         1 85S       0.131000
     53 H17          2.1900     3.5360     3.0460 ha         1 85S       0.113000
     54 H18          4.0910     2.2630     2.2420 ha         1 85S       0.114000
     55 H19          1.4880     0.1550    -0.4490 ha         1 85S       0.115000
     56 H20          5.7770     1.4010     0.6980 h1         1 85S       0.047200
     57 H21          5.1790     0.4860     2.0870 h1         1 85S       0.047200
     58 H22          7.2040    -0.5150     1.0950 h1         1 85S       0.061450
     59 H23          5.8300    -1.6190     1.1530 h1         1 85S       0.061450
     60 H24          5.1060    -1.2170    -2.4400 h1         1 85S       0.061450
     61 H25          4.5660    -2.0250    -0.9750 h1         1 85S       0.061450
     62 H26          3.1380    -0.1410    -1.4920 h1         1 85S       0.047200
     63 H27          4.5030     0.9710    -1.5610 h1         1 85S       0.047200
     64 H28          6.9220    -0.3140    -3.3990 hc         1 85S       0.060700
     65 H29          8.5050    -1.0810    -3.2590 hc         1 85S       0.060700
     66 H30          7.0340    -2.0530    -3.1580 hc         1 85S       0.060700
@<TRIPOS>BOND
     1     1     2 1   
     2     1     6 2   
     3     1    11 1   
     4     2     3 2   
     5     2    13 1   
     6     3    12 1   
     7     4     5 2   
     8     4     8 1   
     9     4    11 1   
    10     5     6 1   
    11     5    37 1   
    12     6     7 1   
    13     7    14 1   
    14     7    16 2   
    15     8    23 ar  
    16     8    27 ar  
    17     9    11 1   
    18     9    12 2   
    19    10    15 2   
    20    10    16 1   
    21    10    38 1   
    22    12    39 1   
    23    13    40 1   
    24    13    41 1   
    25    14    15 1   
    26    14    17 1   
    27    16    42 1   
    28    17    18 1   
    29    17    22 1   
    30    17    43 1   
    31    18    19 1   
    32    18    44 1   
    33    18    45 1   
    34    19    20 1   
    35    19    46 1   
    36    19    47 1   
    37    20    21 1   
    38    21    22 1   
    39    21    48 1   
    40    21    49 1   
    41    22    50 1   
    42    22    51 1   
    43    23    24 ar  
    44    23    52 1   
    45    24    25 ar  
    46    24    53 1   
    47    25    26 ar  
    48    25    54 1   
    49    26    27 ar  
    50    26    28 1   
    51    27    55 1   
    52    28    29 1   
    53    28    33 1   
    54    29    30 1   
    55    29    56 1   
    56    29    57 1   
    57    30    31 1   
    58    30    58 1   
    59    30    59 1   
    60    31    32 1   
    61    31    34 1   
    62    32    33 1   
    63    32    60 1   
    64    32    61 1   
    65    33    62 1   
    66    33    63 1   
    67    34    35 1   
    68    34    36 2   
    69    35    64 1   
    70    35    65 1   
    71    35    66 1   
@<TRIPOS>SUBSTRUCTURE
     1 85S         1 TEMP              0 ****  ****    0 ROOT
