@<TRIPOS>MOLECULE
85S
   66    71     1     0     0
SMALL
No Charge or Current Charge


@<TRIPOS>ATOM
      1 C5          -3.1350     2.0300    -0.7150 cc         1 85S      -0.234000
      2 C6          -4.2700     2.8330    -0.9660 cc         1 85S       0.448900
      3 N1          -4.2310     4.1450    -1.0020 nd         1 85S      -0.311000
      4 C7          -0.9810     1.8010     0.0290 cc         1 85S      -0.019300
      5 C8          -1.5310     0.5460    -0.1000 cd         1 85S      -0.221000
      6 C9          -2.8640     0.6710    -0.6000 cd         1 85S      -0.051200
      7 C11         -3.7230    -0.4380    -0.9790 cd         1 85S      -0.086800
      8 C12          0.3780     2.0480     0.5270 ca         1 85S       0.001200
      9 N3          -1.8460     4.0410    -0.4070 nc         1 85S      -0.302800
     10 C15         -5.1340    -1.7200    -2.1060 cc         1 85S       0.234900
     11 N4          -1.9890     2.6750    -0.3570 na         1 85S       0.300900
     12 C2          -2.9650     4.7040    -0.7580 cd         1 85S       0.137900
     13 N10         -5.4930     2.2820    -1.0600 nv         1 85S      -1.059900
     14 N13         -3.6530    -1.7940    -0.5910 na         1 85S       0.143800
     15 N14         -4.5600    -2.5860    -1.2980 nd         1 85S      -0.519800
     16 C16         -4.6710    -0.4080    -1.9580 cc         1 85S      -0.243000
     17 C17         -2.8560    -2.3560     0.5360 c6         1 85S       0.097300
     18 C18         -1.6660    -3.2080     0.0170 c6         1 85S      -0.123900
     19 C19         -0.8750    -3.8010     1.2060 c6         1 85S       0.154100
     20 O20         -1.7640    -4.5630     2.0520 os         1 85S      -0.444000
     21 C21         -2.8340    -3.7880     2.6350 c6         1 85S       0.154100
     22 C22         -3.7220    -3.1990     1.5150 c6         1 85S      -0.123900
     23 C23          0.6710     3.1780     1.3160 ca         1 85S      -0.106000
     24 C24          1.9720     3.3930     1.7980 ca         1 85S      -0.086000
     25 C25          2.9940     2.4780     1.4970 ca         1 85S      -0.161000
     26 C26          2.7240     1.3410     0.7120 ca         1 85S       0.291000
     27 C27          1.4150     1.1360     0.2370 ca         1 85S      -0.141000
     28 N28          3.7390     0.4050     0.4000 nh         1 85S      -0.789400
     29 C29          4.9010     0.1870     1.3180 c6         1 85S       0.177800
     30 C30          5.5270    -1.2250     1.1380 c6         1 85S       0.093000
     31 N31          5.8590    -1.4990    -0.2880 n          1 85S      -0.416800
     32 C32          4.6680    -1.3460    -1.1720 c6         1 85S       0.093000
     33 C33          4.0290     0.0640    -1.0290 c6         1 85S       0.177800
     34 C34          7.1930    -1.5610    -0.7510 c          1 85S       0.610100
     35 C35          7.4550    -1.8420    -2.2320 c3         1 85S      -0.176100
     36 O36          8.1340    -1.4340     0.0210 o          1 85S      -0.604100
     37 H1          -0.9940    -0.3740     0.0920 ha         1 85S       0.210000
     38 H2          -5.8710    -2.0770    -2.8140 h4         1 85S       0.038100
     39 H3          -2.9140     5.7840    -0.8200 h5         1 85S       0.056100
     40 H4          -5.5770     1.3100    -0.7780 hn         1 85S       0.513500
     41 H5          -6.2980     2.8790    -0.8980 hn         1 85S       0.513500
     42 H6          -4.9550     0.4110    -2.6080 ha         1 85S       0.147000
     43 H7          -2.4650    -1.5200     1.1270 h1         1 85S       0.071700
     44 H8          -2.0360    -4.0260    -0.6170 hc         1 85S       0.066950
     45 H9          -1.0000    -2.6050    -0.6130 hc         1 85S       0.066950
     46 H10         -0.0780    -4.4620     0.8360 h1         1 85S       0.047950
     47 H11         -0.4080    -2.9980     1.7960 h1         1 85S       0.047950
     48 H12         -3.4340    -4.4400     3.2870 h1         1 85S       0.047950
     49 H13         -2.4080    -2.9840     3.2520 h1         1 85S       0.047950
     50 H14         -4.5130    -2.5760     1.9530 hc         1 85S       0.066950
     51 H15         -4.2210    -4.0210     0.9850 hc         1 85S       0.066950
     52 H16         -0.1100     3.8870     1.5770 ha         1 85S       0.131000
     53 H17          2.1880     4.2680     2.4070 ha         1 85S       0.113000
     54 H18          3.9960     2.6640     1.8690 ha         1 85S       0.114000
     55 H19          1.2080     0.2580    -0.3650 ha         1 85S       0.115000
     56 H20          5.6750     0.9450     1.1270 h1         1 85S       0.047200
     57 H21          4.5850     0.2940     2.3660 h1         1 85S       0.047200
     58 H22          6.4150    -1.3140     1.7780 h1         1 85S       0.061450
     59 H23          4.8060    -1.9790     1.4840 h1         1 85S       0.061450
     60 H24          4.9100    -1.5250    -2.2270 h1         1 85S       0.061450
     61 H25          3.9210    -2.1010    -0.8870 h1         1 85S       0.061450
     62 H26          3.1120     0.0930    -1.6340 h1         1 85S       0.047200
     63 H27          4.7190     0.8090    -1.4520 h1         1 85S       0.047200
     64 H28          7.0390    -1.0240    -2.8300 hc         1 85S       0.060700
     65 H29          8.5200    -1.9820    -2.4500 hc         1 85S       0.060700
     66 H30          6.8610    -2.7070    -2.5500 hc         1 85S       0.060700
@<TRIPOS>BOND
     1     1     2 1   
     2     1     6 2   
     3     1    11 1   
     4     2     3 2   
     5     2    13 1   
     6     3    12 1   
     7     4     5 2   
     8     4     8 1   
     9     4    11 1   
    10     5     6 1   
    11     5    37 1   
    12     6     7 1   
    13     7    14 1   
    14     7    16 2   
    15     8    23 ar  
    16     8    27 ar  
    17     9    11 1   
    18     9    12 2   
    19    10    15 2   
    20    10    16 1   
    21    10    38 1   
    22    12    39 1   
    23    13    40 1   
    24    13    41 1   
    25    14    15 1   
    26    14    17 1   
    27    16    42 1   
    28    17    18 1   
    29    17    22 1   
    30    17    43 1   
    31    18    19 1   
    32    18    44 1   
    33    18    45 1   
    34    19    20 1   
    35    19    46 1   
    36    19    47 1   
    37    20    21 1   
    38    21    22 1   
    39    21    48 1   
    40    21    49 1   
    41    22    50 1   
    42    22    51 1   
    43    23    24 ar  
    44    23    52 1   
    45    24    25 ar  
    46    24    53 1   
    47    25    26 ar  
    48    25    54 1   
    49    26    27 ar  
    50    26    28 1   
    51    27    55 1   
    52    28    29 1   
    53    28    33 1   
    54    29    30 1   
    55    29    56 1   
    56    29    57 1   
    57    30    31 1   
    58    30    58 1   
    59    30    59 1   
    60    31    32 1   
    61    31    34 1   
    62    32    33 1   
    63    32    60 1   
    64    32    61 1   
    65    33    62 1   
    66    33    63 1   
    67    34    35 1   
    68    34    36 2   
    69    35    64 1   
    70    35    65 1   
    71    35    66 1   
@<TRIPOS>SUBSTRUCTURE
     1 85S         1 TEMP              0 ****  ****    0 ROOT
