@<TRIPOS>MOLECULE
85V
   54    59     1     0     0
SMALL
No Charge or Current Charge


@<TRIPOS>ATOM
      1 C4           4.8960     1.0560    -0.9460 ca         1 85V      -0.099500
      2 C7           1.6200    -0.6010     0.1160 cp         1 85V      -0.041000
      3 C6           3.0310    -0.1100     0.1440 cp         1 85V      -0.036000
      4 C9          -0.7490    -0.1400    -0.2480 ca         1 85V       0.099400
      5 C20         -6.8730     1.5110     0.1880 c5         1 85V       0.139300
      6 C21         -6.1730     1.3280    -1.1980 c5         1 85V       0.131300
      7 C8           0.5780     0.3080    -0.2240 ca         1 85V      -0.049000
      8 C18         -4.6360     2.0660     0.5190 c5         1 85V       0.126600
      9 C26          7.1190     1.3850     0.2220 cx         1 85V      -0.071700
     10 C1           3.8500    -0.2820     1.2860 ca         1 85V      -0.093000
     11 C2           5.1710     0.1980     1.3090 ca         1 85V      -0.099500
     12 C3           5.7030     0.8700     0.1930 ca         1 85V      -0.037300
     13 C5           3.5750     0.5760    -0.9670 ca         1 85V      -0.093000
     14 C10         -1.0460    -1.4450     0.0460 ca         1 85V      -0.073200
     15 C11         -0.0690    -2.3890     0.3750 ca         1 85V      -0.105000
     16 C12          1.2750    -1.9610     0.4080 ca         1 85V       0.137000
     17 Cl           2.5030    -3.1740     0.7730 cl         1 85V      -0.202000
     18 N13         -2.3970    -1.5770    -0.0640 na         1 85V      -0.321600
     19 C14         -2.8650    -0.3290    -0.4120 cc         1 85V       0.644100
     20 N15         -1.8960     0.5940    -0.5500 nd         1 85V      -0.667100
     21 O16         -4.1820    -0.0570    -0.6480 os         1 85V      -0.383600
     22 C17         -4.6440     1.3100    -0.8460 c5         1 85V       0.153300
     23 O19         -5.8320     1.6170     1.1920 os         1 85V      -0.416000
     24 O22         -6.6270     0.0480    -1.7050 os         1 85V      -0.418000
     25 C23         -7.9220    -0.1860    -1.1110 c5         1 85V       0.110600
     26 C24         -7.7070     0.1870     0.3880 c5         1 85V       0.129300
     27 O25         -7.0140    -0.8650     1.0940 oh         1 85V      -0.677000
     28 C27          7.5130     2.3790     1.2970 cx         1 85V      -0.117900
     29 C28          7.4030     2.8300    -0.1380 cx         1 85V      -0.117900
     30 C29          8.1300     0.3080    -0.1840 c3         1 85V       0.198600
     31 O30          8.0410     0.0070    -1.5820 oh         1 85V      -0.652000
     32 H1           5.2950     1.5700    -1.8170 ha         1 85V       0.115000
     33 H2          -7.5010     2.4120     0.2040 h1         1 85V       0.063700
     34 H3          -6.4420     2.1320    -1.8980 h1         1 85V       0.069700
     35 H4           0.8030     1.3460    -0.4530 ha         1 85V       0.135000
     36 H6          -4.6970     3.1530     0.3700 h1         1 85V       0.070200
     37 H7           3.4530    -0.7840     2.1650 ha         1 85V       0.116500
     38 H8           5.7800     0.0520     2.1970 ha         1 85V       0.115000
     39 H9           2.9690     0.7270    -1.8570 ha         1 85V       0.116500
     40 H10         -0.3320    -3.4210     0.5910 ha         1 85V       0.133000
     41 H11         -2.9630    -2.4020     0.0710 hn         1 85V       0.371000
     42 H13         -4.0370     1.8060    -1.6160 h1         1 85V       0.091700
     43 H14         -8.6640     0.4670    -1.5910 h1         1 85V       0.054200
     44 H15         -8.2220    -1.2310    -1.2610 h1         1 85V       0.054200
     45 H16         -8.6660     0.4020     0.8790 h1         1 85V       0.051700
     46 H17         -7.5980    -1.6570     1.0860 ho         1 85V       0.498000
     47 H18          6.7440     2.7140     1.9890 hc         1 85V       0.074450
     48 H19          8.5080     2.3030     1.7280 hc         1 85V       0.074450
     49 H20          8.3240     3.0510    -0.6730 hc         1 85V       0.074450
     50 H21          6.5620     3.4670    -0.4030 hc         1 85V       0.074450
     51 H22          9.1450     0.6550     0.0550 h1         1 85V       0.020200
     52 H23          7.9480    -0.5970     0.4120 h1         1 85V       0.020200
     53 H24          8.7030    -0.6940    -1.7620 ho         1 85V       0.440000
     54 H5          -3.7530     1.8500     1.1350 h1         1 85V       0.070200
@<TRIPOS>BOND
     1     1    12 ar  
     2     1    13 ar  
     3     1    32 1   
     4     2     3 1   
     5     2     7 ar  
     6     2    16 ar  
     7     3    10 ar  
     8     3    13 ar  
     9     4     7 ar  
    10     4    14 ar  
    11     4    20 1   
    12     5     6 1   
    13     5    23 1   
    14     5    26 1   
    15     5    33 1   
    16     6    22 1   
    17     6    24 1   
    18     6    34 1   
    19     7    35 1   
    20     8    22 1   
    21     8    23 1   
    22     8    36 1   
    23     8    54 1   
    24     9    12 1   
    25     9    28 1   
    26     9    29 1   
    27     9    30 1   
    28    10    11 ar  
    29    10    37 1   
    30    11    12 ar  
    31    11    38 1   
    32    13    39 1   
    33    14    15 ar  
    34    14    18 1   
    35    15    16 ar  
    36    15    40 1   
    37    16    17 1   
    38    18    19 1   
    39    18    41 1   
    40    19    20 2   
    41    19    21 1   
    42    21    22 1   
    43    22    42 1   
    44    24    25 1   
    45    25    26 1   
    46    25    43 1   
    47    25    44 1   
    48    26    27 1   
    49    26    45 1   
    50    27    46 1   
    51    28    29 1   
    52    28    47 1   
    53    28    48 1   
    54    29    49 1   
    55    29    50 1   
    56    30    31 1   
    57    30    51 1   
    58    30    52 1   
    59    31    53 1   
@<TRIPOS>SUBSTRUCTURE
     1 85V         1 TEMP              0 ****  ****    0 ROOT
