@<TRIPOS>MOLECULE
85V
   54    59     1     0     0
SMALL
abcg2


@<TRIPOS>ATOM
      1 C4           4.8270     1.0230    -0.9740 ca         1 85V      -0.099500
      2 C7           1.5530    -0.5770     0.0000 cp         1 85V      -0.041000
      3 C6           2.9590    -0.1170     0.0560 cp         1 85V      -0.036000
      4 C9          -0.7760    -0.0430    -0.2550 ca         1 85V       0.099400
      5 C20         -6.8090     1.4740     0.2240 c5         1 85V       0.139300
      6 C21         -6.0750     1.3380    -1.1250 c5         1 85V       0.131300
      7 C8           0.5480     0.3650    -0.2110 ca         1 85V      -0.049000
      8 C18         -4.6460     2.1790     0.5420 c5         1 85V       0.126600
      9 C26          7.0050     1.3510     0.2480 cx         1 85V      -0.071700
     10 C1           3.7290    -0.2800     1.2070 ca         1 85V      -0.093000
     11 C2           5.0240     0.2080     1.2630 ca         1 85V      -0.099500
     12 C3           5.5930     0.8680     0.1750 ca         1 85V      -0.037300
     13 C5           3.5240     0.5440    -1.0310 ca         1 85V      -0.093000
     14 C10         -1.0890    -1.4020    -0.0870 ca         1 85V      -0.073200
     15 C11         -0.1200    -2.3680     0.1110 ca         1 85V      -0.105000
     16 C12          1.1940    -1.9250     0.1510 ca         1 85V       0.137000
     17 CL           2.4310    -3.1290     0.3540 cl         1 85V      -0.202000
     18 N13         -2.4570    -1.4600    -0.1720 na         1 85V      -0.321600
     19 C14         -2.8830    -0.1880    -0.3810 cc         1 85V       0.644100
     20 N15         -1.9270     0.6930    -0.4350 nd         1 85V      -0.667100
     21 O16         -4.1720     0.0190    -0.5090 os         1 85V      -0.383600
     22 C17         -4.5930     1.3600    -0.7370 c5         1 85V       0.153300
     23 O19         -5.8550     1.8300     1.1910 os         1 85V      -0.416000
     24 O22         -6.5100     0.1530    -1.7310 os         1 85V      -0.418000
     25 C23         -7.6460    -0.3220    -1.0220 c5         1 85V       0.110600
     26 C24         -7.4450     0.0930     0.4310 c5         1 85V       0.129300
     27 O25         -6.5480    -0.7270     1.1270 oh         1 85V      -0.677000
     28 C27          7.3440     2.4360     1.2260 cx         1 85V      -0.117900
     29 C28          7.3360     2.7260    -0.2460 cx         1 85V      -0.117900
     30 C29          8.0380     0.2730     0.0490 c3         1 85V       0.198600
     31 O30          7.9080    -0.2460    -1.2540 oh         1 85V      -0.652000
     32 H1           5.2470     1.5280    -1.8350 ha         1 85V       0.115000
     33 H2          -7.6010     2.2280     0.1660 h1         1 85V       0.063700
     34 H3          -6.2690     2.2010    -1.7720 h1         1 85V       0.069700
     35 H4           0.8040     1.4110    -0.3250 ha         1 85V       0.135000
     36 H6          -4.6320     3.2440     0.2770 h1         1 85V       0.070200
     37 H7           3.3060    -0.7710     2.0740 ha         1 85V       0.116500
     38 H8           5.6010     0.0860     2.1720 ha         1 85V       0.115000
     39 H9           2.9440     0.6780    -1.9360 ha         1 85V       0.116500
     40 H10         -0.3650    -3.4150     0.2240 ha         1 85V       0.133000
     41 H11         -3.0400    -2.2800    -0.1050 hn         1 85V       0.371000
     42 H13         -3.9590     1.8230    -1.4940 h1         1 85V       0.091700
     43 H14         -8.5660     0.1310    -1.4130 h1         1 85V       0.054200
     44 H15         -7.7210    -1.4030    -1.1540 h1         1 85V       0.054200
     45 H16         -8.4120     0.1650     0.9440 h1         1 85V       0.051700
     46 H17         -6.9340    -1.6060     1.1820 ho         1 85V       0.498000
     47 H18          6.5410     2.8420     1.8280 hc         1 85V       0.074450
     48 H19          8.2990     2.3830     1.7350 hc         1 85V       0.074450
     49 H20          8.2850     2.8730    -0.7470 hc         1 85V       0.074450
     50 H21          6.5310     3.3370    -0.6350 hc         1 85V       0.074450
     51 H22          9.0370     0.6990     0.2170 h1         1 85V       0.020200
     52 H23          7.8940    -0.5080     0.8080 h1         1 85V       0.020200
     53 H24          8.4900    -1.0070    -1.3320 ho         1 85V       0.440000
     54 H5          -3.8090     1.9940     1.2160 h1         1 85V       0.070200
@<TRIPOS>BOND
     1     1    12 ar  
     2     1    13 ar  
     3     1    32 1   
     4     2     3 1   
     5     2     7 ar  
     6     2    16 ar  
     7     3    10 ar  
     8     3    13 ar  
     9     4     7 ar  
    10     4    14 ar  
    11     4    20 1   
    12     5     6 1   
    13     5    23 1   
    14     5    26 1   
    15     5    33 1   
    16     6    22 1   
    17     6    24 1   
    18     6    34 1   
    19     7    35 1   
    20     8    22 1   
    21     8    23 1   
    22     8    36 1   
    23     8    54 1   
    24     9    12 1   
    25     9    28 1   
    26     9    29 1   
    27     9    30 1   
    28    10    11 ar  
    29    10    37 1   
    30    11    12 ar  
    31    11    38 1   
    32    13    39 1   
    33    14    15 ar  
    34    14    18 1   
    35    15    16 ar  
    36    15    40 1   
    37    16    17 1   
    38    18    19 1   
    39    18    41 1   
    40    19    20 2   
    41    19    21 1   
    42    21    22 1   
    43    22    42 1   
    44    24    25 1   
    45    25    26 1   
    46    25    43 1   
    47    25    44 1   
    48    26    27 1   
    49    26    45 1   
    50    27    46 1   
    51    28    29 1   
    52    28    47 1   
    53    28    48 1   
    54    29    49 1   
    55    29    50 1   
    56    30    31 1   
    57    30    51 1   
    58    30    52 1   
    59    31    53 1   
@<TRIPOS>SUBSTRUCTURE
     1 85V         1 TEMP              0 ****  ****    0 ROOT
