@<TRIPOS>MOLECULE
85X
   47    52     1     0     0
SMALL
No Charge or Current Charge


@<TRIPOS>ATOM
      1 OAC         -3.3370     3.2740    -0.0490 o          1 85X      -0.555000
      2 CAQ         -2.1260     3.1480    -0.0150 c          1 85X       0.588600
      3 NAP         -1.2330     4.2110     0.0260 ns         1 85X      -0.520900
      4 CAN          0.1770     3.7560     0.0860 c5         1 85X       0.149300
      5 CAR          0.0090     2.2630     0.0730 ca         1 85X      -0.059300
      6 CAS         -1.3160     1.9000     0.0070 ca         1 85X      -0.133600
      7 CAY         -1.7060     0.5320    -0.0270 cp         1 85X       0.007000
      8 CAT         -2.9830    -0.1920    -0.1450 cp         1 85X      -0.089000
      9 CAI         -4.3240     0.2260    -0.3080 ca         1 85X      -0.032000
     10 CAE         -5.3340    -0.7540    -0.4310 ca         1 85X      -0.150000
     11 CAG         -5.0180    -2.1320    -0.4020 ca         1 85X      -0.072000
     12 CAK         -3.6820    -2.5510    -0.2490 ca         1 85X      -0.150000
     13 CAV         -2.7010    -1.5600    -0.1280 ca         1 85X      -0.010200
     14 NBB         -1.3150    -1.6770     0.0530 na         1 85X      -0.092600
     15 CAA         -0.7850    -2.7840     0.8650 c3         1 85X       0.059900
     16 CAZ         -0.6690    -0.4270     0.0240 ca         1 85X      -0.035200
     17 CBA          0.6970    -0.0420     0.0430 ca         1 85X       0.012800
     18 CAX          1.0520     1.3150     0.0840 cp         1 85X      -0.063000
     19 CAU          2.5050     1.4220     0.1150 cp         1 85X      -0.077000
     20 CAJ          3.3660     2.5360     0.1810 ca         1 85X      -0.055000
     21 CAF          4.7590     2.3110     0.1870 ca         1 85X      -0.138000
     22 CAH          5.2790     0.9950     0.1210 ca         1 85X      -0.080000
     23 CAL          4.4120    -0.1160     0.0540 ca         1 85X      -0.140000
     24 CAW          3.0320     0.1320     0.0630 ca         1 85X      -0.013200
     25 NBC          1.9250    -0.7420    -0.0190 na         1 85X      -0.097600
     26 CAO          2.0490    -2.0230    -0.7470 c3         1 85X       0.080600
     27 CAM          2.5960    -3.1870     0.1140 c3         1 85X      -0.040300
     28 CAD          2.6100    -4.4550    -0.6190 c1         1 85X       0.288900
     29 NAB          2.5950    -5.4570    -1.2140 n1         1 85X      -0.444000
     30 H1           0.7580     4.0970    -0.7820 h1         1 85X       0.059700
     31 H2          -4.5950     1.2730    -0.3480 ha         1 85X       0.151000
     32 H3          -6.3690    -0.4430    -0.5550 ha         1 85X       0.117000
     33 H4          -5.8100    -2.8720    -0.5000 ha         1 85X       0.111000
     34 H5          -3.4250    -3.6080    -0.2280 ha         1 85X       0.116000
     35 H6          -0.3720    -3.5590     0.2090 h1         1 85X       0.048700
     36 H7          -0.0080    -2.4100     1.5420 h1         1 85X       0.048700
     37 H8          -1.5880    -3.2220     1.4720 h1         1 85X       0.048700
     38 H9           2.9740     3.5490     0.2260 ha         1 85X       0.115000
     39 H10          5.4410     3.1570     0.2370 ha         1 85X       0.116000
     40 H11          6.3560     0.8410     0.1190 ha         1 85X       0.115000
     41 H12          4.8150    -1.1220    -0.0080 ha         1 85X       0.116000
     42 H13          1.0700    -2.2960    -1.1590 h1         1 85X       0.070700
     43 H14          2.7180    -1.8670    -1.6030 h1         1 85X       0.070700
     44 H15          3.6150    -2.9700     0.4460 hc         1 85X       0.082200
     45 H16          1.9940    -3.3130     1.0180 hc         1 85X       0.082200
     46 H17         -1.5740     5.1650     0.0290 hn         1 85X       0.333500
     47 H18          0.6810     4.0900     1.0020 h1         1 85X       0.059700
@<TRIPOS>BOND
     1     1     2 2   
     2     2     3 1   
     3     2     6 1   
     4     3     4 1   
     5     3    46 1   
     6     4     5 1   
     7     4    30 1   
     8     4    47 1   
     9     5     6 ar  
    10     5    18 ar  
    11     6     7 ar  
    12     7     8 1   
    13     7    16 ar  
    14     8     9 ar  
    15     8    13 ar  
    16     9    10 ar  
    17     9    31 1   
    18    10    11 ar  
    19    10    32 1   
    20    11    12 ar  
    21    11    33 1   
    22    12    13 ar  
    23    12    34 1   
    24    13    14 1   
    25    14    15 1   
    26    14    16 1   
    27    15    35 1   
    28    15    36 1   
    29    15    37 1   
    30    16    17 ar  
    31    17    18 ar  
    32    17    25 1   
    33    18    19 1   
    34    19    20 ar  
    35    19    24 ar  
    36    20    21 ar  
    37    20    38 1   
    38    21    22 ar  
    39    21    39 1   
    40    22    23 ar  
    41    22    40 1   
    42    23    24 ar  
    43    23    41 1   
    44    24    25 1   
    45    25    26 1   
    46    26    27 1   
    47    26    42 1   
    48    26    43 1   
    49    27    28 1   
    50    27    44 1   
    51    27    45 1   
    52    28    29 3   
@<TRIPOS>SUBSTRUCTURE
     1 85X         1 TEMP              0 ****  ****    0 ROOT
