@<TRIPOS>MOLECULE
85X
   47    52     1     0     0
SMALL
abcg2


@<TRIPOS>ATOM
      1 OAC         -3.3380     3.2880    -0.1630 o          1 85X      -0.555000
      2 CAQ         -2.1290     3.1640    -0.0340 c          1 85X       0.588600
      3 NAP         -1.2490     4.1780     0.1220 ns         1 85X      -0.520900
      4 CAN          0.1260     3.7660     0.2360 c5         1 85X       0.149300
      5 CAR          0.0020     2.2800     0.1370 ca         1 85X      -0.059300
      6 CAS         -1.3180     1.9240    -0.0140 ca         1 85X      -0.133600
      7 CAY         -1.6810     0.5690    -0.0990 cp         1 85X       0.007000
      8 CAT         -2.9390    -0.1210    -0.2090 cp         1 85X      -0.089000
      9 CAI         -4.2710     0.2830    -0.3370 ca         1 85X      -0.032000
     10 CAE         -5.2620    -0.6790    -0.3950 ca         1 85X      -0.150000
     11 CAG         -4.9460    -2.0410    -0.3240 ca         1 85X      -0.072000
     12 CAK         -3.6370    -2.4680    -0.2000 ca         1 85X      -0.150000
     13 CAV         -2.6420    -1.4940    -0.1500 ca         1 85X      -0.010200
     14 NBB         -1.2850    -1.6740    -0.0230 na         1 85X      -0.092600
     15 CAA         -0.7450    -2.9000     0.5220 c3         1 85X       0.059900
     16 CAZ         -0.6790    -0.4290    -0.0290 ca         1 85X      -0.035200
     17 CBA          0.6800    -0.0510    -0.0130 ca         1 85X       0.012800
     18 CAX          1.0040     1.3150     0.1280 cp         1 85X      -0.063000
     19 CAU          2.4340     1.4190     0.1350 cp         1 85X      -0.077000
     20 CAJ          3.3210     2.4890     0.2460 ca         1 85X      -0.055000
     21 CAF          4.6780     2.2390     0.1470 ca         1 85X      -0.138000
     22 CAH          5.1510     0.9410    -0.0710 ca         1 85X      -0.080000
     23 CAL          4.2850    -0.1360    -0.1790 ca         1 85X      -0.140000
     24 CAW          2.9220     0.1180    -0.0550 ca         1 85X      -0.013200
     25 NBC          1.8630    -0.7670    -0.1360 na         1 85X      -0.097600
     26 CAO          2.0540    -2.0880    -0.6850 c3         1 85X       0.080600
     27 CAM          2.6210    -3.0710     0.3500 c3         1 85X      -0.040300
     28 CAD          2.7220    -4.4090    -0.2080 c1         1 85X       0.288900
     29 NAB          2.7890    -5.4630    -0.6630 n1         1 85X      -0.444000
     30 H1           0.7410     4.1850    -0.5670 h1         1 85X       0.059700
     31 H2          -4.5180     1.3320    -0.3900 ha         1 85X       0.151000
     32 H3          -6.2960    -0.3770    -0.4990 ha         1 85X       0.117000
     33 H4          -5.7390    -2.7770    -0.3730 ha         1 85X       0.111000
     34 H5          -3.4040    -3.5240    -0.1580 ha         1 85X       0.116000
     35 H6          -0.3770    -3.5810    -0.2440 h1         1 85X       0.048700
     36 H7           0.0480    -2.6740     1.2300 h1         1 85X       0.048700
     37 H8          -1.5210    -3.4190     1.0810 h1         1 85X       0.048700
     38 H9           2.9640     3.4980     0.4040 ha         1 85X       0.115000
     39 H10          5.3840     3.0550     0.2330 ha         1 85X       0.116000
     40 H11          6.2150     0.7690    -0.1570 ha         1 85X       0.115000
     41 H12          4.6770    -1.1280    -0.3570 ha         1 85X       0.116000
     42 H13          1.1170    -2.4510    -1.0960 h1         1 85X       0.070700
     43 H14          2.7440    -2.0220    -1.5280 h1         1 85X       0.070700
     44 H15          3.6150    -2.7660     0.6790 hc         1 85X       0.082200
     45 H16          1.9980    -3.1180     1.2430 hc         1 85X       0.082200
     46 H17         -1.5320     5.1440     0.1350 hn         1 85X       0.333500
     47 H18          0.5660     4.0800     1.1870 h1         1 85X       0.059700
@<TRIPOS>BOND
     1     1     2 2   
     2     2     3 1   
     3     2     6 1   
     4     3     4 1   
     5     3    46 1   
     6     4     5 1   
     7     4    30 1   
     8     4    47 1   
     9     5     6 ar  
    10     5    18 ar  
    11     6     7 ar  
    12     7     8 1   
    13     7    16 ar  
    14     8     9 ar  
    15     8    13 ar  
    16     9    10 ar  
    17     9    31 1   
    18    10    11 ar  
    19    10    32 1   
    20    11    12 ar  
    21    11    33 1   
    22    12    13 ar  
    23    12    34 1   
    24    13    14 1   
    25    14    15 1   
    26    14    16 1   
    27    15    35 1   
    28    15    36 1   
    29    15    37 1   
    30    16    17 ar  
    31    17    18 ar  
    32    17    25 1   
    33    18    19 1   
    34    19    20 ar  
    35    19    24 ar  
    36    20    21 ar  
    37    20    38 1   
    38    21    22 ar  
    39    21    39 1   
    40    22    23 ar  
    41    22    40 1   
    42    23    24 ar  
    43    23    41 1   
    44    24    25 1   
    45    25    26 1   
    46    26    27 1   
    47    26    42 1   
    48    26    43 1   
    49    27    28 1   
    50    27    44 1   
    51    27    45 1   
    52    28    29 3   
@<TRIPOS>SUBSTRUCTURE
     1 85X         1 TEMP              0 ****  ****    0 ROOT
