@<TRIPOS>MOLECULE
85Z
   50    53     1     0     0
SMALL
No Charge or Current Charge


@<TRIPOS>ATOM
      1 C1           0.2650     1.1190     1.8880 c3         1 85Z      -0.061800
      2 C2          -0.1480     2.1640     0.8560 ca         1 85Z       0.003700
      3 C3           0.6510     3.3110     0.6800 ca         1 85Z      -0.152000
      4 C4           0.2870     4.2900    -0.2550 ca         1 85Z       0.177000
      5 C5          -0.8800     4.1440    -1.0170 ca         1 85Z      -0.170000
      6 C6          -1.6850     3.0060    -0.8470 ca         1 85Z      -0.073000
      7 C7          -1.3190     2.0060     0.0760 ca         1 85Z      -0.054800
      8 C8          -2.1790     0.8280     0.2330 cc         1 85Z      -0.174400
      9 C9          -1.9900    -0.2360    -0.6450 cd         1 85Z       0.066600
     10 C10         -2.8310    -1.4400    -0.4360 ca         1 85Z      -0.177800
     11 C11         -2.7090    -2.6140    -1.2230 ca         1 85Z      -0.008000
     12 C12         -3.5330    -3.7270    -0.9820 ca         1 85Z      -0.239000
     13 C13         -4.4850    -3.6910     0.0420 ca         1 85Z       0.182100
     14 C14         -4.6100    -2.5470     0.8320 ca         1 85Z      -0.183000
     15 C15         -3.7900    -1.4350     0.5970 ca         1 85Z       0.206100
     16 O16         -3.9410    -0.3460     1.4080 os         1 85Z      -0.338200
     17 C17         -3.1920     0.7890     1.3140 c          1 85Z       0.678300
     18 O18         -3.3670     1.7180     2.0910 o          1 85Z      -0.484000
     19 O19         -5.2820    -4.7680     0.2760 oh         1 85Z      -0.526100
     20 C20         -0.9600    -0.1590    -1.7710 c3         1 85Z       0.009100
     21 C21          0.4750    -0.4220    -1.3220 ca         1 85Z      -0.131300
     22 C22          0.8180    -1.6330    -0.6940 ca         1 85Z      -0.103000
     23 C23          2.1340    -1.8590    -0.2570 ca         1 85Z      -0.126000
     24 C24          3.1300    -0.8800    -0.4410 ca         1 85Z       0.011200
     25 C25          2.7860     0.3290    -1.0770 ca         1 85Z      -0.126000
     26 C26          1.4700     0.5550    -1.5160 ca         1 85Z      -0.103000
     27 C27          4.5170    -1.1480     0.0400 ce         1 85Z      -0.248200
     28 C28          5.6250    -0.3430    -0.0100 cf         1 85Z      -0.204200
     29 C29          6.9830    -0.7020     0.5030 c          1 85Z       0.694200
     30 O30          7.1530    -1.7990     1.0150 o          1 85Z      -0.720500
     31 O31          7.8680     0.1300     0.3830 o          1 85Z      -0.720500
     32 F32          1.0610     5.3850    -0.4180 f          1 85Z      -0.184000
     33 H11C        -0.3180     1.2310     2.8100 hc         1 85Z       0.056033
     34 H12C         0.1140     0.1000     1.5180 hc         1 85Z       0.056033
     35 H13C         1.3250     1.2110     2.1510 hc         1 85Z       0.056033
     36 H3           1.5550     3.4460     1.2670 ha         1 85Z       0.138000
     37 H5          -1.1590     4.9100    -1.7350 ha         1 85Z       0.125000
     38 H6          -2.5920     2.8940    -1.4380 ha         1 85Z       0.110000
     39 H201        -1.2100    -0.8330    -2.5940 hc         1 85Z       0.054200
     40 H202        -1.0200     0.8220    -2.2550 hc         1 85Z       0.054200
     41 H11         -1.9750    -2.6960    -2.0180 ha         1 85Z       0.126000
     42 H12         -3.4210    -4.6160    -1.5980 ha         1 85Z       0.118000
     43 H14         -5.3420    -2.5180     1.6340 ha         1 85Z       0.150000
     44 H19         -5.0490    -5.4670    -0.3710 ho         1 85Z       0.469000
     45 H22          0.0650    -2.4000    -0.5320 ha         1 85Z       0.098000
     46 H26          1.2240     1.4990    -1.9960 ha         1 85Z       0.098000
     47 H23          2.3780    -2.7990     0.2320 ha         1 85Z       0.117500
     48 H25          3.5300     1.1040    -1.2340 ha         1 85Z       0.117500
     49 H27          4.6380    -2.1340     0.4940 ha         1 85Z       0.192000
     50 H28          5.5500     0.6470    -0.4510 ha         1 85Z       0.144000
@<TRIPOS>BOND
     1     1     2 1   
     2     1    33 1   
     3     1    34 1   
     4     1    35 1   
     5     2     3 ar  
     6     2     7 ar  
     7     3     4 ar  
     8     3    36 1   
     9     4     5 ar  
    10     4    32 1   
    11     5     6 ar  
    12     5    37 1   
    13     6     7 ar  
    14     6    38 1   
    15     7     8 1   
    16     8     9 2   
    17     8    17 1   
    18     9    10 1   
    19     9    20 1   
    20    10    11 ar  
    21    10    15 ar  
    22    11    12 ar  
    23    11    41 1   
    24    12    13 ar  
    25    12    42 1   
    26    13    14 ar  
    27    13    19 1   
    28    14    15 ar  
    29    14    43 1   
    30    15    16 1   
    31    16    17 1   
    32    17    18 2   
    33    19    44 1   
    34    20    21 1   
    35    20    39 1   
    36    20    40 1   
    37    21    22 ar  
    38    21    26 ar  
    39    22    23 ar  
    40    22    45 1   
    41    23    24 ar  
    42    23    47 1   
    43    24    25 ar  
    44    24    27 1   
    45    25    26 ar  
    46    25    48 1   
    47    26    46 1   
    48    27    28 2   
    49    27    49 1   
    50    28    29 1   
    51    28    50 1   
    52    29    30 1   
    53    29    31 1   
@<TRIPOS>SUBSTRUCTURE
     1 85Z         1 TEMP              0 ****  ****    0 ROOT
