@<TRIPOS>MOLECULE
85Z
   50    53     1     0     0
SMALL
abcg2


@<TRIPOS>ATOM
      1 C1           0.3680     1.1690     1.8460 c3         1 85Z      -0.061800
      2 C2          -0.0900     2.1940     0.8530 ca         1 85Z       0.003700
      3 C3           0.6420     3.3640     0.6830 ca         1 85Z      -0.152000
      4 C4           0.2350     4.3010    -0.2460 ca         1 85Z       0.177000
      5 C5          -0.8880     4.1260    -1.0270 ca         1 85Z      -0.170000
      6 C6          -1.6180     2.9590    -0.8530 ca         1 85Z      -0.073000
      7 C7          -1.2340     1.9920     0.0700 ca         1 85Z      -0.054800
      8 C8          -2.0360     0.7520     0.1960 cc         1 85Z      -0.174400
      9 C9          -1.9500    -0.2800    -0.6840 cd         1 85Z       0.066600
     10 C10         -2.7790    -1.4460    -0.4870 ca         1 85Z      -0.177800
     11 C11         -2.7820    -2.5830    -1.3070 ca         1 85Z      -0.008000
     12 C12         -3.5950    -3.6620    -1.0480 ca         1 85Z      -0.239000
     13 C13         -4.4540    -3.6400     0.0590 ca         1 85Z       0.182100
     14 C14         -4.4810    -2.5300     0.8920 ca         1 85Z      -0.183000
     15 C15         -3.6480    -1.4620     0.6090 ca         1 85Z       0.206100
     16 O16         -3.7110    -0.4140     1.4570 os         1 85Z      -0.338200
     17 C17         -2.9530     0.7010     1.3180 c          1 85Z       0.678300
     18 O18         -3.1030     1.5700     2.1420 o          1 85Z      -0.484000
     19 O19         -5.2650    -4.6610     0.3570 oh         1 85Z      -0.526100
     20 C20         -0.9700    -0.2250    -1.8280 c3         1 85Z       0.009100
     21 C21          0.4440    -0.4640    -1.3570 ca         1 85Z      -0.131300
     22 C22          0.8070    -1.6640    -0.7530 ca         1 85Z      -0.103000
     23 C23          2.1020    -1.8650    -0.3050 ca         1 85Z      -0.126000
     24 C24          3.0790    -0.8760    -0.4400 ca         1 85Z       0.011200
     25 C25          2.7090     0.3230    -1.0550 ca         1 85Z      -0.126000
     26 C26          1.4160     0.5220    -1.5040 ca         1 85Z      -0.103000
     27 C27          4.4270    -1.1420     0.0650 ce         1 85Z      -0.248200
     28 C28          5.4690    -0.3080     0.0640 cf         1 85Z      -0.204200
     29 C29          6.8250    -0.6810     0.6190 c          1 85Z       0.694200
     30 O30          6.9700    -1.8310     1.0790 o          1 85Z      -0.720500
     31 O31          7.6910     0.2170     0.5660 o          1 85Z      -0.720500
     32 F32          0.9630     5.4210    -0.3940 f          1 85Z      -0.184000
     33 H11C        -0.3520     1.0490     2.6570 hc         1 85Z       0.056033
     34 H12C         0.4980     0.1940     1.3760 hc         1 85Z       0.056033
     35 H13C         1.3210     1.4520     2.2890 hc         1 85Z       0.056033
     36 H3           1.5380     3.5370     1.2670 ha         1 85Z       0.138000
     37 H5          -1.1910     4.8750    -1.7460 ha         1 85Z       0.125000
     38 H6          -2.5040     2.7990    -1.4540 ha         1 85Z       0.110000
     39 H201        -1.2300    -0.9490    -2.5980 hc         1 85Z       0.054200
     40 H202        -1.0280     0.7510    -2.3090 hc         1 85Z       0.054200
     41 H11         -2.1360    -2.6340    -2.1710 ha         1 85Z       0.126000
     42 H12         -3.5700    -4.5250    -1.7010 ha         1 85Z       0.118000
     43 H14         -5.1380    -2.4990     1.7520 ha         1 85Z       0.150000
     44 H19         -5.1540    -5.3820    -0.2740 ho         1 85Z       0.469000
     45 H22          0.0760    -2.4540    -0.6270 ha         1 85Z       0.098000
     46 H26          1.1510     1.4660    -1.9650 ha         1 85Z       0.098000
     47 H23          2.3630    -2.8080     0.1620 ha         1 85Z       0.117500
     48 H25          3.4340     1.1170    -1.1840 ha         1 85Z       0.117500
     49 H27          4.5750    -2.1320     0.4870 ha         1 85Z       0.192000
     50 H28          5.3730     0.6950    -0.3430 ha         1 85Z       0.144000
@<TRIPOS>BOND
     1     1     2 1   
     2     1    33 1   
     3     1    34 1   
     4     1    35 1   
     5     2     3 ar  
     6     2     7 ar  
     7     3     4 ar  
     8     3    36 1   
     9     4     5 ar  
    10     4    32 1   
    11     5     6 ar  
    12     5    37 1   
    13     6     7 ar  
    14     6    38 1   
    15     7     8 1   
    16     8     9 2   
    17     8    17 1   
    18     9    10 1   
    19     9    20 1   
    20    10    11 ar  
    21    10    15 ar  
    22    11    12 ar  
    23    11    41 1   
    24    12    13 ar  
    25    12    42 1   
    26    13    14 ar  
    27    13    19 1   
    28    14    15 ar  
    29    14    43 1   
    30    15    16 1   
    31    16    17 1   
    32    17    18 2   
    33    19    44 1   
    34    20    21 1   
    35    20    39 1   
    36    20    40 1   
    37    21    22 ar  
    38    21    26 ar  
    39    22    23 ar  
    40    22    45 1   
    41    23    24 ar  
    42    23    47 1   
    43    24    25 ar  
    44    24    27 1   
    45    25    26 ar  
    46    25    48 1   
    47    26    46 1   
    48    27    28 2   
    49    27    49 1   
    50    28    29 1   
    51    28    50 1   
    52    29    30 1   
    53    29    31 1   
@<TRIPOS>SUBSTRUCTURE
     1 85Z         1 TEMP              0 ****  ****    0 ROOT
