@<TRIPOS>MOLECULE
860
   34    36     1     0     0
SMALL
abcg2


@<TRIPOS>ATOM
      1 C1          11.0220    -1.0930    22.7960 ca         1 860      -0.063300
      2 C10          5.4070     0.9290    19.2190 ca         1 860      -0.093000
      3 C11          5.6810     0.5590    17.8820 ca         1 860       0.362900
      4 C13          7.3000    -0.9030    18.5230 ca         1 860       0.314900
      5 C14          5.8560     0.6330    21.5940 ca         1 860      -0.089000
      6 C15          4.8850     1.5550    21.8780 ca         1 860      -0.093000
      7 C16          4.1620     2.1920    20.8480 ca         1 860      -0.107000
      8 C17          4.4150     1.8820    19.5410 ca         1 860      -0.084000
      9 C19         12.5470     0.1660    24.1770 ca         1 860      -0.100000
     10 C2           9.6390    -1.5840    22.4860 c3         1 860      -0.114100
     11 C20         11.2650    -0.2900    23.9050 ca         1 860      -0.087000
     12 C3           8.9170    -0.6850    21.4970 c          1 860       0.600100
     13 C4          12.0810    -1.4320    21.9590 ca         1 860      -0.093000
     14 C5          13.3550    -0.9680    22.2430 ca         1 860       0.122000
     15 C7          13.6060    -0.1680    23.3470 ca         1 860      -0.097000
     16 C8           7.1330    -0.6330    19.8550 ca         1 860      -0.078000
     17 C9           6.1470     0.3060    20.2510 ca         1 860      -0.001000
     18 N12          6.5790    -0.3240    17.5420 nb         1 860      -0.655000
     19 N6           7.9230    -1.3030    20.8110 ns         1 860      -0.177000
     20 O18          9.1770     0.4930    21.3580 o          1 860      -0.558100
     21 CL21        14.6670    -1.4030    21.1940 cl         1 860      -0.205000
     22 H2           8.0490    -1.6230    18.2110 h4         1 860       0.021100
     23 H3           6.3870     0.1440    22.3990 ha         1 860       0.120000
     24 H4           4.6640     1.7990    22.9090 ha         1 860       0.115000
     25 H5           3.4020     2.9200    21.0990 ha         1 860       0.117000
     26 H6           3.8600     2.3550    18.7400 ha         1 860       0.118000
     27 H7          12.7270     0.7880    25.0440 ha         1 860       0.119000
     28 H8           9.0340    -1.6050    23.3980 hc         1 860       0.065700
     29 H9           9.6680    -2.6110    22.1150 hc         1 860       0.065700
     30 H10         10.4490    -0.0260    24.5660 ha         1 860       0.117000
     31 H11         11.9100    -2.0620    21.0950 ha         1 860       0.126000
     32 H12         14.6070     0.1830    23.5580 ha         1 860       0.130000
     33 H13          7.8290    -2.3050    20.8860 hn         1 860       0.157000
     34 H1           5.1150     1.0280    17.0820 h4         1 860       0.021100
@<TRIPOS>BOND
     1     1    10 1   
     2     1    11 ar  
     3     1    13 ar  
     4     2     3 ar  
     5     2     8 ar  
     6     2    17 ar  
     7     3    18 ar  
     8     3    34 1   
     9     4    16 ar  
    10     4    18 ar  
    11     4    22 1   
    12     5     6 ar  
    13     5    17 ar  
    14     5    23 1   
    15     6     7 ar  
    16     6    24 1   
    17     7     8 ar  
    18     7    25 1   
    19     8    26 1   
    20     9    11 ar  
    21     9    15 ar  
    22     9    27 1   
    23    10    12 1   
    24    10    28 1   
    25    10    29 1   
    26    11    30 1   
    27    12    19 1   
    28    12    20 2   
    29    13    14 ar  
    30    13    31 1   
    31    14    15 ar  
    32    14    21 1   
    33    15    32 1   
    34    16    17 ar  
    35    16    19 1   
    36    19    33 1   
@<TRIPOS>SUBSTRUCTURE
     1 860         1 TEMP              0 ****  ****    0 ROOT
