@<TRIPOS>MOLECULE
860
   34    36     1     0     0
SMALL
No Charge or Current Charge


@<TRIPOS>ATOM
      1 C1          10.9460    -1.0390    23.0030 ca         1 860      -0.063300
      2 C10          5.5420     0.9770    19.1360 ca         1 860      -0.093000
      3 C11          6.1570     0.8950    17.8710 ca         1 860       0.362900
      4 C13          7.9510    -0.2840    18.7300 ca         1 860       0.314900
      5 C14          5.5410     0.4380    21.5120 ca         1 860      -0.089000
      6 C15          4.2990     1.0810    21.6530 ca         1 860      -0.093000
      7 C16          3.6810     1.6780    20.5420 ca         1 860      -0.107000
      8 C17          4.2990     1.6230    19.2830 ca         1 860      -0.084000
      9 C19         13.0050     0.1000    23.6580 ca         1 860      -0.100000
     10 C2           9.4450    -1.2520    23.1640 c3         1 860      -0.114100
     11 C20         11.6220    -0.1030    23.8100 ca         1 860      -0.087000
     12 C3           8.6620    -0.2840    22.2680 c          1 860       0.600100
     13 C4          11.6700    -1.7700    22.0390 ca         1 860      -0.093000
     14 C5          13.0520    -1.5670    21.8880 ca         1 860       0.122000
     15 C7          13.7210    -0.6340    22.6960 ca         1 860      -0.097000
     16 C8           7.4350    -0.2370    20.0430 ca         1 860      -0.078000
     17 C9           6.1830     0.3940    20.2530 ca         1 860      -0.001000
     18 N12          7.3370     0.2700    17.6610 nb         1 860      -0.655000
     19 N6           8.1960    -0.8350    21.0850 ns         1 860      -0.177000
     20 O18          8.4940     0.8920    22.5700 o          1 860      -0.558100
     21 Cl21        13.9460    -2.4830    20.6820 cl         1 860      -0.205000
     22 H2           8.9050    -0.7720    18.5310 h4         1 860       0.021100
     23 H3           5.9840    -0.0300    22.3850 ha         1 860       0.120000
     24 H4           3.8130     1.1130    22.6260 ha         1 860       0.115000
     25 H5           2.7190     2.1740    20.6550 ha         1 860       0.117000
     26 H6           3.8090     2.0760    18.4230 ha         1 860       0.118000
     27 H7          13.5210     0.8240    24.2850 ha         1 860       0.119000
     28 H8           9.1580    -1.0750    24.2070 hc         1 860       0.065700
     29 H9           9.1990    -2.2860    22.8930 hc         1 860       0.065700
     30 H10         11.0750     0.4710    24.5550 ha         1 860       0.117000
     31 H11         11.1650    -2.4960    21.4060 ha         1 860       0.126000
     32 H12         14.7900    -0.4790    22.5760 ha         1 860       0.130000
     33 H13          8.4590    -1.7990    20.9240 hn         1 860       0.157000
     34 H1           5.6840     1.3330    16.9930 h4         1 860       0.021100
@<TRIPOS>BOND
     1     1    10 1   
     2     1    11 ar  
     3     1    13 ar  
     4     2     3 ar  
     5     2     8 ar  
     6     2    17 ar  
     7     3    18 ar  
     8     3    34 1   
     9     4    16 ar  
    10     4    18 ar  
    11     4    22 1   
    12     5     6 ar  
    13     5    17 ar  
    14     5    23 1   
    15     6     7 ar  
    16     6    24 1   
    17     7     8 ar  
    18     7    25 1   
    19     8    26 1   
    20     9    11 ar  
    21     9    15 ar  
    22     9    27 1   
    23    10    12 1   
    24    10    28 1   
    25    10    29 1   
    26    11    30 1   
    27    12    19 1   
    28    12    20 2   
    29    13    14 ar  
    30    13    31 1   
    31    14    15 ar  
    32    14    21 1   
    33    15    32 1   
    34    16    17 ar  
    35    16    19 1   
    36    19    33 1   
@<TRIPOS>SUBSTRUCTURE
     1 860         1 TEMP              0 ****  ****    0 ROOT
