@<TRIPOS>MOLECULE
861
   67    69     1     0     0
SMALL
abcg2


@<TRIPOS>ATOM
      1 O6          21.5360     5.2720    72.4500 o          1 861      -0.542500
      2 S           21.7150     4.3220    73.5270 s6         1 861       1.252100
      3 O5          20.5650     3.5710    73.9810 o          1 861      -0.542500
      4 C18         22.4120     5.2200    74.9240 c3         1 861      -0.270100
      5 C19         21.4680     6.2450    75.4750 ca         1 861      -0.072300
      6 C24         21.5010     7.5610    75.0140 ca         1 861      -0.090000
      7 C23         20.6210     8.5090    75.5240 ca         1 861      -0.108500
      8 C22         19.6970     8.1490    76.5010 ca         1 861      -0.101000
      9 C21         19.6580     6.8370    76.9650 ca         1 861      -0.108500
     10 C20         20.5380     5.8910    76.4540 ca         1 861      -0.090000
     11 N           22.8540     3.2510    73.0830 n3         1 861      -0.801500
     12 C17         24.0620     3.6950    72.3700 c6         1 861       0.228800
     13 C16         24.2310     2.8890    71.0870 c6         1 861      -0.088400
     14 C15         24.2100     1.3890    71.3810 c6         1 861      -0.075400
     15 C14         22.9540     0.9950    72.1590 c6         1 861      -0.071400
     16 C13         22.7860     1.8360    73.4300 c6         1 861       0.192500
     17 C12         23.7810     1.4270    74.5240 c          1 861       0.569100
     18 O4          24.2300     0.3070    74.6210 o          1 861      -0.477000
     19 O3          24.0380     2.4130    75.3800 os         1 861      -0.465100
     20 C11         24.9150     2.1120    76.5030 c3         1 861       0.162600
     21 C10         24.6590     3.1160    77.6040 c3         1 861      -0.077400
     22 C9          23.2300     3.0860    78.1750 c3         1 861      -0.031100
     23 C3          22.7750     1.7090    78.5830 ca         1 861      -0.020300
     24 C2          21.9520     0.9760    77.7320 ca         1 861      -0.221000
     25 C4          23.2160     1.1480    79.7790 ca         1 861      -0.221000
     26 C5          22.8320    -0.1470    80.1270 ca         1 861       0.158100
     27 O2          23.2020    -0.7710    81.2770 os         1 861      -0.331100
     28 C8          24.0670    -0.0750    82.1720 c3         1 861       0.145900
     29 C6          22.0090    -0.8910    79.2710 ca         1 861       0.031100
     30 O1          21.5960    -2.1530    79.6250 os         1 861      -0.334100
     31 C7          22.5290    -3.1880    79.2800 c3         1 861       0.147900
     32 C1          21.5740    -0.3250    78.0670 ca         1 861       0.158100
     33 O           20.7860    -1.1130    77.2880 os         1 861      -0.331100
     34 C           20.3490    -0.5890    76.0340 c3         1 861       0.145900
     35 H1          22.6610     4.4520    75.6500 h1         1 861       0.099200
     36 H2          23.3330     5.6660    74.5490 h1         1 861       0.099200
     37 H3          22.2220     7.8420    74.2560 ha         1 861       0.117500
     38 H4          20.6600     9.5290    75.1630 ha         1 861       0.116500
     39 H5          19.0140     8.8870    76.9010 ha         1 861       0.114000
     40 H6          18.9440     6.5520    77.7280 ha         1 861       0.116500
     41 H7          20.5100     4.8710    76.8190 ha         1 861       0.117500
     42 H8          24.9270     3.5580    73.0270 h1         1 861       0.053700
     43 H9          23.9690     4.7560    72.1560 h1         1 861       0.053700
     44 H10         25.1700     3.1760    70.6110 hc         1 861       0.055700
     45 H11         23.4180     3.1460    70.4020 hc         1 861       0.055700
     46 H12         24.2580     0.8210    70.4500 hc         1 861       0.050200
     47 H13         25.0990     1.1210    71.9620 hc         1 861       0.050200
     48 H14         22.0670     1.1640    71.5440 hc         1 861       0.065200
     49 H15         22.9760    -0.0590    72.4300 hc         1 861       0.065200
     50 H16         21.8020     1.6440    73.8590 h1         1 861       0.102700
     51 H17         24.7130     1.0950    76.8320 h1         1 861       0.060700
     52 H18         25.9420     2.1680    76.1420 h1         1 861       0.060700
     53 H19         25.3740     2.8930    78.4000 hc         1 861       0.054200
     54 H20         24.8840     4.1250    77.2480 hc         1 861       0.054200
     55 H21         23.1930     3.7620    79.0320 hc         1 861       0.053200
     56 H22         22.5330     3.4770    77.4350 hc         1 861       0.053200
     57 H23         21.6200     1.4220    76.8070 ha         1 861       0.119000
     58 H24         23.8540     1.7260    80.4330 ha         1 861       0.119000
     59 H25         24.2410    -0.7550    83.0030 h1         1 861       0.043367
     60 H26         25.0170     0.1680    81.6910 h1         1 861       0.043367
     61 H27         23.5990     0.8410    82.5400 h1         1 861       0.043367
     62 H28         22.0860    -4.1280    79.6040 h1         1 861       0.035700
     63 H29         22.6920    -3.2110    78.2000 h1         1 861       0.035700
     64 H30         23.4810    -3.0340    79.7920 h1         1 861       0.035700
     65 H31         19.7490    -1.3730    75.5790 h1         1 861       0.043367
     66 H32         19.7400     0.3070    76.1720 h1         1 861       0.043367
     67 H33         21.2000    -0.3560    75.3900 h1         1 861       0.043367
@<TRIPOS>BOND
     1     1     2 2   
     2     2     3 2   
     3     2     4 1   
     4     2    11 1   
     5     4     5 1   
     6     4    35 1   
     7     4    36 1   
     8     5     6 ar  
     9     5    10 ar  
    10     6     7 ar  
    11     6    37 1   
    12     7     8 ar  
    13     7    38 1   
    14     8     9 ar  
    15     8    39 1   
    16     9    10 ar  
    17     9    40 1   
    18    10    41 1   
    19    11    12 1   
    20    11    16 1   
    21    12    13 1   
    22    12    42 1   
    23    12    43 1   
    24    13    14 1   
    25    13    44 1   
    26    13    45 1   
    27    14    15 1   
    28    14    46 1   
    29    14    47 1   
    30    15    16 1   
    31    15    48 1   
    32    15    49 1   
    33    16    17 1   
    34    16    50 1   
    35    17    18 2   
    36    17    19 1   
    37    19    20 1   
    38    20    21 1   
    39    20    51 1   
    40    20    52 1   
    41    21    22 1   
    42    21    53 1   
    43    21    54 1   
    44    22    23 1   
    45    22    55 1   
    46    22    56 1   
    47    23    24 ar  
    48    23    25 ar  
    49    24    32 ar  
    50    24    57 1   
    51    25    26 ar  
    52    25    58 1   
    53    26    27 1   
    54    26    29 ar  
    55    27    28 1   
    56    28    59 1   
    57    28    60 1   
    58    28    61 1   
    59    29    30 1   
    60    29    32 ar  
    61    30    31 1   
    62    31    62 1   
    63    31    63 1   
    64    31    64 1   
    65    32    33 1   
    66    33    34 1   
    67    34    65 1   
    68    34    66 1   
    69    34    67 1   
@<TRIPOS>SUBSTRUCTURE
     1 861         1 TEMP              0 ****  ****    0 ROOT
