@<TRIPOS>MOLECULE
861
   67    69     1     0     0
SMALL
No Charge or Current Charge


@<TRIPOS>ATOM
      1 O6          21.1160     5.6900    72.2370 o          1 861      -0.542500
      2 S           21.3240     4.4450    72.9850 s6         1 861       1.252100
      3 O5          20.5530     3.2510    72.6220 o          1 861      -0.542500
      4 C18         21.0990     4.7380    74.7570 c3         1 861      -0.270100
      5 C19         19.6640     5.0430    75.1710 ca         1 861      -0.072300
      6 C24         19.2900     6.3560    75.5150 ca         1 861      -0.090000
      7 C23         17.9700     6.6360    75.9110 ca         1 861      -0.108500
      8 C22         17.0180     5.6050    75.9680 ca         1 861      -0.101000
      9 C21         17.3860     4.2920    75.6270 ca         1 861      -0.108500
     10 C20         18.7050     4.0120    75.2290 ca         1 861      -0.090000
     11 N           22.9910     4.0310    72.7760 n3         1 861      -0.801500
     12 C17         23.9670     4.7140    73.6600 c6         1 861       0.228800
     13 C16         25.3910     4.6600    73.0530 c6         1 861      -0.088400
     14 C15         25.8150     3.2170    72.6920 c6         1 861      -0.075400
     15 C14         24.7260     2.5450    71.8180 c6         1 861      -0.071400
     16 C13         23.3370     2.5810    72.5240 c6         1 861       0.192500
     17 C12         23.2540     1.6000    73.7590 c          1 861       0.569100
     18 O4          22.3660     1.6620    74.5980 o          1 861      -0.477000
     19 O3          24.1610     0.5640    73.7190 os         1 861      -0.465100
     20 C11         24.2950    -0.3230    74.8490 c3         1 861       0.162600
     21 C10         25.4770     0.1680    75.7190 c3         1 861      -0.077400
     22 C9          25.1830     1.3890    76.6280 c3         1 861      -0.031100
     23 C3          24.2130     1.0840    77.7680 ca         1 861      -0.020300
     24 C2          22.9940     1.7680    77.8670 ca         1 861      -0.221000
     25 C4          24.5500     0.1370    78.7470 ca         1 861      -0.221000
     26 C5          23.6760    -0.1550    79.8210 ca         1 861       0.158100
     27 O2          24.0350    -1.0980    80.7710 os         1 861      -0.331100
     28 C8          25.2730    -1.8310    80.7280 c3         1 861       0.145900
     29 C6          22.4280     0.5360    79.9130 ca         1 861       0.031100
     30 O1          21.4820     0.3370    80.9220 os         1 861      -0.334100
     31 C7          21.6160    -0.5940    82.0110 c3         1 861       0.147900
     32 C1          22.1010     1.4980    78.9270 ca         1 861       0.158100
     33 O           20.8890     2.1610    79.0340 os         1 861      -0.331100
     34 C           20.4300     3.1000    78.0470 c3         1 861       0.145900
     35 H1          21.4560     3.8410    75.2680 h1         1 861       0.099200
     36 H2          21.7520     5.5770    75.0150 h1         1 861       0.099200
     37 H3          20.0200     7.1610    75.4760 ha         1 861       0.117500
     38 H4          17.6870     7.6530    76.1750 ha         1 861       0.116500
     39 H5          15.9970     5.8220    76.2750 ha         1 861       0.114000
     40 H6          16.6510     3.4920    75.6710 ha         1 861       0.116500
     41 H7          18.9810     2.9930    74.9700 ha         1 861       0.117500
     42 H8          23.9760     4.2540    74.6590 h1         1 861       0.053700
     43 H9          23.6980     5.7720    73.7910 h1         1 861       0.053700
     44 H10         26.1110     5.1010    73.7560 hc         1 861       0.055700
     45 H11         25.4170     5.2850    72.1500 hc         1 861       0.055700
     46 H12         26.7730     3.2310    72.1550 hc         1 861       0.050200
     47 H13         25.9800     2.6360    73.6090 hc         1 861       0.050200
     48 H14         24.6520     3.0800    70.8610 hc         1 861       0.065200
     49 H15         25.0170     1.5180    71.5610 hc         1 861       0.065200
     50 H16         22.6320     2.1450    71.8010 h1         1 861       0.102700
     51 H17         23.3750    -0.4110    75.4420 h1         1 861       0.060700
     52 H18         24.5440    -1.3290    74.4860 h1         1 861       0.060700
     53 H19         25.8190    -0.6670    76.3400 hc         1 861       0.054200
     54 H20         26.3180     0.4120    75.0580 hc         1 861       0.054200
     55 H21         26.1320     1.7320    77.0560 hc         1 861       0.053200
     56 H22         24.8210     2.2220    76.0150 hc         1 861       0.053200
     57 H23         22.7530     2.5100    77.1140 ha         1 861       0.119000
     58 H24         25.5090    -0.3640    78.6610 ha         1 861       0.119000
     59 H25         25.3340    -2.5220    81.5780 h1         1 861       0.043367
     60 H26         25.3460    -2.4210    79.8050 h1         1 861       0.043367
     61 H27         26.1320    -1.1500    80.7830 h1         1 861       0.043367
     62 H28         20.7280    -0.5500    82.6540 h1         1 861       0.035700
     63 H29         21.7090    -1.6220    81.6390 h1         1 861       0.035700
     64 H30         22.4890    -0.3510    82.6300 h1         1 861       0.035700
     65 H31         19.4380     3.4830    78.3160 h1         1 861       0.043367
     66 H32         21.1140     3.9550    77.9690 h1         1 861       0.043367
     67 H33         20.3530     2.6180    77.0640 h1         1 861       0.043367
@<TRIPOS>BOND
     1     1     2 2   
     2     2     3 2   
     3     2     4 1   
     4     2    11 1   
     5     4     5 1   
     6     4    35 1   
     7     4    36 1   
     8     5     6 ar  
     9     5    10 ar  
    10     6     7 ar  
    11     6    37 1   
    12     7     8 ar  
    13     7    38 1   
    14     8     9 ar  
    15     8    39 1   
    16     9    10 ar  
    17     9    40 1   
    18    10    41 1   
    19    11    12 1   
    20    11    16 1   
    21    12    13 1   
    22    12    42 1   
    23    12    43 1   
    24    13    14 1   
    25    13    44 1   
    26    13    45 1   
    27    14    15 1   
    28    14    46 1   
    29    14    47 1   
    30    15    16 1   
    31    15    48 1   
    32    15    49 1   
    33    16    17 1   
    34    16    50 1   
    35    17    18 2   
    36    17    19 1   
    37    19    20 1   
    38    20    21 1   
    39    20    51 1   
    40    20    52 1   
    41    21    22 1   
    42    21    53 1   
    43    21    54 1   
    44    22    23 1   
    45    22    55 1   
    46    22    56 1   
    47    23    24 ar  
    48    23    25 ar  
    49    24    32 ar  
    50    24    57 1   
    51    25    26 ar  
    52    25    58 1   
    53    26    27 1   
    54    26    29 ar  
    55    27    28 1   
    56    28    59 1   
    57    28    60 1   
    58    28    61 1   
    59    29    30 1   
    60    29    32 ar  
    61    30    31 1   
    62    31    62 1   
    63    31    63 1   
    64    31    64 1   
    65    32    33 1   
    66    33    34 1   
    67    34    65 1   
    68    34    66 1   
    69    34    67 1   
@<TRIPOS>SUBSTRUCTURE
     1 861         1 TEMP              0 ****  ****    0 ROOT
