@<TRIPOS>MOLECULE
862
   59    63     1     0     0
SMALL
No Charge or Current Charge


@<TRIPOS>ATOM
      1 N           -2.2550    -4.8900     0.1840 nb         1 862      -0.321000
      2 C           -3.4130    -4.2610    -0.1180 ca         1 862       0.203900
      3 O            7.6170     3.6140     1.2240 o          1 862      -0.515100
      4 C1          -2.4590    -2.1920    -0.2180 ca         1 862       0.165500
      5 C10          6.4430     1.6690     0.4810 ca         1 862      -0.171600
      6 C11          6.4060     0.5450    -0.3780 ca         1 862      -0.053000
      7 C12          5.3170    -0.3440    -0.3470 ca         1 862      -0.116500
      8 C13          7.6040     2.6470     0.4720 c          1 862       0.582700
      9 C14          8.7750     2.4260    -0.4870 c3         1 862      -0.195100
     10 C15         -3.3070     0.1320    -0.6800 c6         1 862       0.084300
     11 C16         -3.1930     0.6120    -2.1530 c6         1 862      -0.087400
     12 C17         -4.2770     1.6730    -2.4750 c6         1 862      -0.100400
     13 C18         -4.2370     2.8360    -1.4550 c6         1 862       0.098000
     14 C19         -3.2940     1.3450     0.2880 c6         1 862       0.081000
     15 C2          -1.2350    -2.7370     0.0730 ca         1 862      -0.371900
     16 C21         -6.5830     3.5240     0.3220 c3         1 862      -0.152400
     17 C22         -7.7340     3.7610     1.3260 c3         1 862      -0.077100
     18 C3          -1.1630    -4.1190     0.2830 ca         1 862       0.465900
     19 C4          -0.2780    -1.6260     0.0870 cc         1 862       0.359900
     20 C5           1.1630    -1.6640     0.3180 cc         1 862       0.214700
     21 C6           1.9170    -0.5240     0.2990 cd         1 862      -0.159000
     22 C7           4.2440    -0.1290     0.5370 ca         1 862       0.021800
     23 C8           4.2750     0.9850     1.3970 ca         1 862      -0.116500
     24 C9           5.3620     1.8750     1.3690 ca         1 862      -0.053000
     25 N1          -3.5760    -2.9360    -0.3230 nb         1 862      -0.242000
     26 N2          -2.2340    -0.8390    -0.3500 na         1 862      -0.014100
     27 N3          -0.9110    -0.4670    -0.1690 nd         1 862      -0.542100
     28 N4          -0.0490    -4.7940     0.6120 nv         1 862      -1.061900
     29 N5           3.1670    -1.0170     0.5620 na         1 862       0.219000
     30 N6           3.1970    -2.3760     0.6860 nd         1 862      -0.181800
     31 N7           1.9520    -2.7680     0.5550 nc         1 862      -0.382000
     32 N8          -4.3680     2.3170    -0.0650 n          1 862      -0.412800
     33 O1          -5.6400     1.8590     1.7880 o          1 862      -0.593100
     34 H1          -4.3030    -4.8830    -0.2000 h5         1 862       0.045100
     35 H2           7.2140     0.3420    -1.0780 ha         1 862       0.134500
     36 H3           5.3080    -1.2020    -1.0160 ha         1 862       0.139000
     37 H4           9.5450     3.2000    -0.3960 hc         1 862       0.064700
     38 H5           9.1910     1.4260    -0.3210 hc         1 862       0.064700
     39 H6           8.3920     2.3620    -1.5120 hc         1 862       0.064700
     40 H7          -4.2770    -0.3710    -0.5590 h1         1 862       0.098700
     41 H8          -2.1970     1.0410    -2.3290 hc         1 862       0.058200
     42 H9          -3.2910    -0.2440    -2.8350 hc         1 862       0.058200
     43 H10         -4.1310     2.0630    -3.4920 hc         1 862       0.052200
     44 H11         -5.2720     1.2060    -2.4580 hc         1 862       0.052200
     45 H12         -3.2760     3.3630    -1.5450 h1         1 862       0.051700
     46 H13         -5.0190     3.5640    -1.7030 h1         1 862       0.051700
     47 H14         -3.4030     0.9900     1.3220 h1         1 862       0.076200
     48 H15         -2.3210     1.8550     0.2260 h1         1 862       0.076200
     49 H16         -6.0730     4.4620     0.0720 hc         1 862       0.054200
     50 H17         -6.9720     3.2190    -0.6560 hc         1 862       0.054200
     51 H18         -8.4360     4.5070     0.9350 hc         1 862       0.042700
     52 H19         -8.2890     2.8320     1.5070 hc         1 862       0.042700
     53 H20         -7.3450     4.1260     2.2840 hc         1 862       0.042700
     54 H21          1.6740     0.5160     0.1310 h4         1 862       0.186000
     55 H22          3.4570     1.1610     2.0930 ha         1 862       0.139000
     56 H23          5.3580     2.7280     2.0450 ha         1 862       0.134500
     57 H24          0.8450    -4.3110     0.5430 hn         1 862       0.519500
     58 H25         -0.0410    -5.8040     0.5010 hn         1 862       0.519500
     59 C20         -5.5150     2.4950     0.7490 c          1 862       0.602100
@<TRIPOS>BOND
     1     1     2 ar  
     2     1    18 ar  
     3     2    25 ar  
     4     2    34 1   
     5     3     8 2   
     6     4    15 ar  
     7     4    25 ar  
     8     4    26 1   
     9     5     6 ar  
    10     5     8 1   
    11     5    24 ar  
    12     6     7 ar  
    13     6    35 1   
    14     7    22 ar  
    15     7    36 1   
    16     8     9 1   
    17     9    37 1   
    18     9    38 1   
    19     9    39 1   
    20    10    11 1   
    21    10    14 1   
    22    10    26 1   
    23    10    40 1   
    24    11    12 1   
    25    11    41 1   
    26    11    42 1   
    27    12    13 1   
    28    12    43 1   
    29    12    44 1   
    30    13    32 1   
    31    13    45 1   
    32    13    46 1   
    33    14    32 1   
    34    14    47 1   
    35    14    48 1   
    36    15    18 ar  
    37    15    19 1   
    38    16    17 1   
    39    16    49 1   
    40    16    50 1   
    41    16    59 1   
    42    17    51 1   
    43    17    52 1   
    44    17    53 1   
    45    18    28 1   
    46    19    20 1   
    47    19    27 2   
    48    20    21 2   
    49    20    31 1   
    50    21    29 1   
    51    21    54 1   
    52    22    23 ar  
    53    22    29 1   
    54    23    24 ar  
    55    23    55 1   
    56    24    56 1   
    57    26    27 1   
    58    28    57 1   
    59    28    58 1   
    60    29    30 1   
    61    30    31 2   
    62    32    59 1   
    63    33    59 2   
@<TRIPOS>SUBSTRUCTURE
     1 862         1 TEMP              0 ****  ****    0 ROOT
