@<TRIPOS>MOLECULE
862
   59    63     1     0     0
SMALL
abcg2


@<TRIPOS>ATOM
      1 N           -2.2380    -4.6500     0.2810 nb         1 862      -0.321000
      2 C           -3.3940    -4.0370     0.0410 ca         1 862       0.203900
      3 O            7.8970     3.5580     0.6650 o          1 862      -0.515100
      4 C1          -2.4800    -2.0530    -0.2180 ca         1 862       0.165500
      5 C10          6.6810     1.5810     0.3140 ca         1 862      -0.171600
      6 C11          6.6780     0.2350    -0.0470 ca         1 862      -0.053000
      7 C12          5.5000    -0.4910    -0.0860 ca         1 862      -0.116500
      8 C13          7.9360     2.3860     0.3540 c          1 862       0.582700
      9 C14          9.2290     1.7080     0.0010 c3         1 862      -0.195100
     10 C15         -3.4180     0.2170    -0.7300 c6         1 862       0.084300
     11 C16         -3.2740     0.8310    -2.1200 c6         1 862      -0.087400
     12 C17         -4.3600     1.8780    -2.3500 c6         1 862      -0.100400
     13 C18         -4.3810     2.9010    -1.2220 c6         1 862       0.098000
     14 C19         -3.4560     1.3060     0.3460 c6         1 862       0.081000
     15 C2          -1.1930    -2.5410     0.0190 ca         1 862      -0.371900
     16 C21         -6.7740     3.1750     0.3980 c3         1 862      -0.152400
     17 C22         -7.9530     3.1520     1.3540 c3         1 862      -0.077100
     18 C3          -1.1070    -3.9340     0.2790 ca         1 862       0.465900
     19 C4          -0.3610    -1.3930    -0.0900 cc         1 862       0.359900
     20 C5           1.0730    -1.2600     0.0670 cc         1 862       0.214700
     21 C6           1.8540    -0.1360    -0.0090 cd         1 862      -0.159000
     22 C7           4.3090     0.1370     0.2520 ca         1 862       0.021800
     23 C8           4.2890     1.4760     0.6240 ca         1 862      -0.116500
     24 C9           5.4710     2.1900     0.6470 ca         1 862      -0.053000
     25 N1          -3.6110    -2.7640    -0.2160 nb         1 862      -0.242000
     26 N2          -2.3610    -0.7300    -0.4470 na         1 862      -0.014100
     27 N3          -1.0850    -0.3340    -0.3690 nd         1 862      -0.542100
     28 N4           0.0380    -4.5590     0.5190 nv         1 862      -1.061900
     29 N5           3.1020    -0.5920     0.2150 na         1 862       0.219000
     30 N6           3.1010    -1.9030     0.4190 nd         1 862      -0.181800
     31 N7           1.8890    -2.3070     0.3310 nc         1 862      -0.382000
     32 N8          -4.5320     2.2310     0.0590 n          1 862      -0.412800
     33 O1          -5.7680     1.5300     1.8090 o          1 862      -0.593100
     34 H1          -4.2700    -4.6770     0.0610 h5         1 862       0.045100
     35 H2           7.5960    -0.2690    -0.3150 ha         1 862       0.134500
     36 H3           5.5120    -1.5290    -0.3840 ha         1 862       0.139000
     37 H4          10.0530     2.4140     0.0570 hc         1 862       0.064700
     38 H5           9.4310     0.8790     0.6820 hc         1 862       0.064700
     39 H6           9.1890     1.2910    -1.0060 hc         1 862       0.064700
     40 H7          -4.3460    -0.3570    -0.6790 h1         1 862       0.098700
     41 H8          -2.2880     1.2980    -2.2070 hc         1 862       0.058200
     42 H9          -3.3290     0.0490    -2.8800 hc         1 862       0.058200
     43 H10         -4.1930     2.3860    -3.3020 hc         1 862       0.052200
     44 H11         -5.3390     1.3940    -2.4120 hc         1 862       0.052200
     45 H12         -3.4400     3.4610    -1.2070 h1         1 862       0.051700
     46 H13         -5.1730     3.6280    -1.3750 h1         1 862       0.051700
     47 H14         -3.5930     0.8690     1.3320 h1         1 862       0.076200
     48 H15         -2.5100     1.8550     0.3480 h1         1 862       0.076200
     49 H16         -6.3790     4.1910     0.3210 hc         1 862       0.054200
     50 H17         -7.1080     2.9120    -0.6100 hc         1 862       0.054200
     51 H18         -8.7250     3.8360     1.0020 hc         1 862       0.042700
     52 H19         -8.3980     2.1600     1.4250 hc         1 862       0.042700
     53 H20         -7.6660     3.4640     2.3570 hc         1 862       0.042700
     54 H21          1.6220     0.8940    -0.2180 h4         1 862       0.186000
     55 H22          3.3650     1.9590     0.9100 ha         1 862       0.139000
     56 H23          5.4510     3.2310     0.9370 ha         1 862       0.134500
     57 H24          0.9150    -4.0510     0.5220 hn         1 862       0.519500
     58 H25          0.0340    -5.5510     0.6890 hn         1 862       0.519500
     59 C20         -5.6570     2.2360     0.8150 c          1 862       0.602100
@<TRIPOS>BOND
     1     1     2 ar  
     2     1    18 ar  
     3     2    25 ar  
     4     2    34 1   
     5     3     8 2   
     6     4    15 ar  
     7     4    25 ar  
     8     4    26 1   
     9     5     6 ar  
    10     5     8 1   
    11     5    24 ar  
    12     6     7 ar  
    13     6    35 1   
    14     7    22 ar  
    15     7    36 1   
    16     8     9 1   
    17     9    37 1   
    18     9    38 1   
    19     9    39 1   
    20    10    11 1   
    21    10    14 1   
    22    10    26 1   
    23    10    40 1   
    24    11    12 1   
    25    11    41 1   
    26    11    42 1   
    27    12    13 1   
    28    12    43 1   
    29    12    44 1   
    30    13    32 1   
    31    13    45 1   
    32    13    46 1   
    33    14    32 1   
    34    14    47 1   
    35    14    48 1   
    36    15    18 ar  
    37    15    19 1   
    38    16    17 1   
    39    16    49 1   
    40    16    50 1   
    41    16    59 1   
    42    17    51 1   
    43    17    52 1   
    44    17    53 1   
    45    18    28 1   
    46    19    20 1   
    47    19    27 2   
    48    20    21 2   
    49    20    31 1   
    50    21    29 1   
    51    21    54 1   
    52    22    23 ar  
    53    22    29 1   
    54    23    24 ar  
    55    23    55 1   
    56    24    56 1   
    57    26    27 1   
    58    28    57 1   
    59    28    58 1   
    60    29    30 1   
    61    30    31 2   
    62    32    59 1   
    63    33    59 2   
@<TRIPOS>SUBSTRUCTURE
     1 862         1 TEMP              0 ****  ****    0 ROOT
