@<TRIPOS>MOLECULE
863
   53    55     1     0     0
SMALL
No Charge or Current Charge


@<TRIPOS>ATOM
      1 C1          -4.2870     3.1930     0.1000 c3         1 863       0.144900
      2 C10          4.1760     0.3360    -0.1400 c          1 863       0.545000
      3 C11          3.0110     1.3390    -0.2870 c5         1 863      -0.204300
      4 C12          3.2570     2.5250     0.6900 c3         1 863      -0.067100
      5 C13          2.9880     1.8490    -1.7570 c3         1 863      -0.067100
      6 C14         -0.6400    -0.0790     0.5320 ca         1 863      -0.149000
      7 C15         -2.0110     0.2530     0.5880 ca         1 863       0.117100
      8 C16         -2.9440    -1.8240     0.0740 c5         1 863       0.165300
      9 C17         -3.9680    -2.8640     0.6370 c5         1 863      -0.092400
     10 C18         -5.2150    -2.6920    -0.2700 c5         1 863      -0.075400
     11 C19         -4.5400    -2.5080    -1.6480 c5         1 863      -0.075400
     12 C2          -2.4280     1.5710     0.3000 ca         1 863       0.123100
     13 C20         -3.5340    -1.3790    -1.3090 c5         1 863      -0.092400
     14 C3          -1.4660     2.5290    -0.0860 ca         1 863      -0.183000
     15 C4          -0.1070     2.1800    -0.1670 ca         1 863      -0.089000
     16 C5           0.3310     0.8750     0.1470 ca         1 863      -0.112900
     17 C6           1.7860     0.4820     0.0830 ce         1 863       0.387900
     18 C8           4.6390    -2.1660     2.0390 c3         1 863      -0.103600
     19 C9           3.5680    -3.3670     0.0720 c3         1 863      -0.103600
     20 N1           2.1910    -0.7180     0.3470 n2         1 863      -0.434300
     21 N2           3.5410    -0.8580     0.2240 n          1 863      -0.184800
     22 O1          -3.7750     1.8820     0.3940 os         1 863      -0.317100
     23 O2           5.3810     0.5070    -0.2860 o          1 863      -0.526000
     24 O3          -2.9520    -0.6860     0.9820 os         1 863      -0.329100
     25 H1          -5.3750     3.2150     0.2380 h1         1 863       0.040700
     26 H2          -3.8450     3.9430     0.7680 h1         1 863       0.040700
     27 H3          -4.0700     3.4730    -0.9390 h1         1 863       0.040700
     28 H4           4.2070     3.0290     0.4720 hc         1 863       0.048700
     29 H5           2.4700     3.2830     0.6370 hc         1 863       0.048700
     30 H6           3.3040     2.1740     1.7280 hc         1 863       0.048700
     31 H7           2.8400     1.0180    -2.4580 hc         1 863       0.048700
     32 H8           2.1890     2.5750    -1.9380 hc         1 863       0.048700
     33 H9           3.9340     2.3370    -2.0230 hc         1 863       0.048700
     34 H10         -0.3280    -1.0830     0.8080 ha         1 863       0.138000
     35 H11         -1.9450    -2.2710    -0.0060 h1         1 863       0.052700
     36 H12         -3.5640    -3.8790     0.5530 hc         1 863       0.053950
     37 H13         -4.2010    -2.7040     1.6960 hc         1 863       0.053950
     38 H14         -5.8770    -3.5650    -0.2390 hc         1 863       0.045700
     39 H15         -5.8100    -1.8160     0.0150 hc         1 863       0.045700
     40 H16         -4.0350    -3.4220    -1.9850 hc         1 863       0.045700
     41 H17         -5.2510    -2.2140    -2.4280 hc         1 863       0.045700
     42 H18         -4.0500    -0.4140    -1.2450 hc         1 863       0.053950
     43 H19         -2.7560    -1.2780    -2.0740 hc         1 863       0.053950
     44 H20         -1.7510     3.5490    -0.3270 ha         1 863       0.120000
     45 H21          0.5960     2.9470    -0.4690 ha         1 863       0.115000
     46 H22          5.2530    -2.0470    -0.0170 h1         1 863       0.074700
     47 H23          5.2440    -3.0530     2.2570 hc         1 863       0.044033
     48 H24          5.2070    -1.2810     2.3520 hc         1 863       0.044033
     49 H25          3.7230    -2.2150     2.6400 hc         1 863       0.044033
     50 H26          2.6260    -3.5010     0.6180 hc         1 863       0.044033
     51 H27          3.3410    -3.3120    -0.9990 hc         1 863       0.044033
     52 H28          4.1900    -4.2540     0.2420 hc         1 863       0.044033
     53 C7           4.3040    -2.0890     0.5350 c3         1 863       0.143700
@<TRIPOS>BOND
     1     1    22 1   
     2     1    25 1   
     3     1    26 1   
     4     1    27 1   
     5     2     3 1   
     6     2    21 1   
     7     2    23 2   
     8     3     4 1   
     9     3     5 1   
    10     3    17 1   
    11     4    28 1   
    12     4    29 1   
    13     4    30 1   
    14     5    31 1   
    15     5    32 1   
    16     5    33 1   
    17     6     7 ar  
    18     6    16 ar  
    19     6    34 1   
    20     7    12 ar  
    21     7    24 1   
    22     8     9 1   
    23     8    13 1   
    24     8    24 1   
    25     8    35 1   
    26     9    10 1   
    27     9    36 1   
    28     9    37 1   
    29    10    11 1   
    30    10    38 1   
    31    10    39 1   
    32    11    13 1   
    33    11    40 1   
    34    11    41 1   
    35    12    14 ar  
    36    12    22 1   
    37    13    42 1   
    38    13    43 1   
    39    14    15 ar  
    40    14    44 1   
    41    15    16 ar  
    42    15    45 1   
    43    16    17 1   
    44    17    20 2   
    45    18    47 1   
    46    18    48 1   
    47    18    49 1   
    48    18    53 1   
    49    19    50 1   
    50    19    51 1   
    51    19    52 1   
    52    19    53 1   
    53    20    21 1   
    54    21    53 1   
    55    46    53 1   
@<TRIPOS>SUBSTRUCTURE
     1 863         1 TEMP              0 ****  ****    0 ROOT
