@<TRIPOS>MOLECULE
863
   53    55     1     0     0
SMALL
bcc


@<TRIPOS>ATOM
      1 C1          -4.1860     3.3280     0.0280 c3         1 863       0.121700
      2 C10          3.9940     0.4180    -0.1540 c          1 863       0.687500
      3 C11          2.9030     1.4800    -0.2320 c5         1 863      -0.204300
      4 C12          3.1450     2.5060     0.8790 c3         1 863      -0.067100
      5 C13          2.9430     2.1240    -1.6220 c3         1 863      -0.067100
      6 C14         -0.7100     0.0600     0.2370 ca         1 863      -0.167000
      7 C15         -2.0460     0.3980     0.2810 ca         1 863       0.117100
      8 C16         -2.7880    -1.8500     0.6470 c5         1 863       0.142100
      9 C17         -4.0940    -2.4960     1.0800 c5         1 863      -0.092400
     10 C18         -4.8950    -2.5990    -0.2150 c5         1 863      -0.075400
     11 C19         -3.8420    -2.9670    -1.2750 c5         1 863      -0.075400
     12 C2          -2.4270     1.7510     0.1130 ca         1 863       0.123100
     13 C20         -2.4800    -2.5200    -0.6970 c5         1 863      -0.092400
     14 C3          -1.4480     2.7100    -0.0800 ca         1 863      -0.201000
     15 C4          -0.1020     2.3540    -0.1180 ca         1 863      -0.107000
     16 C5           0.2850     1.0330     0.0370 ca         1 863      -0.112900
     17 C6           1.6860     0.6170    -0.0010 ce         1 863       0.387900
     18 C8           3.6770    -2.5760     1.6750 c3         1 863      -0.103600
     19 C9           3.4640    -3.0270    -0.8050 c3         1 863      -0.103600
     20 N1           2.0000    -0.6140     0.1690 n2         1 863      -0.434300
     21 N2           3.3560    -0.7500     0.0810 n          1 863      -0.251800
     22 O1          -3.7450     1.9910     0.1600 os         1 863      -0.293900
     23 O2           5.1940     0.5830    -0.2740 o          1 863      -0.601500
     24 O3          -3.0600    -0.4570     0.4900 os         1 863      -0.305900
     25 H1          -5.2710     3.3040     0.0920 h1         1 863       0.040700
     26 H2          -3.8000     3.9630     0.8290 h1         1 863       0.040700
     27 H3          -3.8980     3.7600    -0.9340 h1         1 863       0.040700
     28 H4           4.1240     2.9650     0.7430 hc         1 863       0.048700
     29 H5           2.4000     3.2990     0.8620 hc         1 863       0.048700
     30 H6           3.1210     2.0430     1.8660 hc         1 863       0.048700
     31 H7           2.7690     1.3910    -2.4090 hc         1 863       0.048700
     32 H8           2.1960     2.9100    -1.7220 hc         1 863       0.048700
     33 H9           3.9220     2.5750    -1.7860 hc         1 863       0.048700
     34 H10         -0.3990    -0.9690     0.3550 ha         1 863       0.156000
     35 H11         -1.9940    -1.9880     1.3870 h1         1 863       0.052700
     36 H12         -3.8690    -3.4930     1.4680 hc         1 863       0.053950
     37 H13         -4.5950    -1.9420     1.8760 hc         1 863       0.053950
     38 H14         -5.7000    -3.3320    -0.1530 hc         1 863       0.045700
     39 H15         -5.3550    -1.6370    -0.4470 hc         1 863       0.045700
     40 H16         -3.8390    -4.0440    -1.4510 hc         1 863       0.045700
     41 H17         -4.0540    -2.4950    -2.2340 hc         1 863       0.045700
     42 H18         -1.9370    -1.8570    -1.3720 hc         1 863       0.053950
     43 H19         -1.8290    -3.3780    -0.5220 hc         1 863       0.053950
     44 H20         -1.7100     3.7520    -0.2050 ha         1 863       0.138000
     45 H21          0.6250     3.1380    -0.2650 ha         1 863       0.133000
     46 H22          5.0220    -1.9080     0.1470 h1         1 863       0.074700
     47 H23          4.1950    -3.5210     1.8350 hc         1 863       0.044033
     48 H24          4.0290    -1.8680     2.4260 hc         1 863       0.044033
     49 H25          2.6110    -2.7450     1.8330 hc         1 863       0.044033
     50 H26          2.3850    -3.1760    -0.7410 hc         1 863       0.044033
     51 H27          3.7040    -2.6610    -1.8040 hc         1 863       0.044033
     52 H28          3.9450    -3.9970    -0.6790 hc         1 863       0.044033
     53 C7           3.9490    -2.0620     0.2670 c3         1 863       0.143700
@<TRIPOS>BOND
     1     1    22 1   
     2     1    25 1   
     3     1    26 1   
     4     1    27 1   
     5     2     3 1   
     6     2    21 1   
     7     2    23 2   
     8     3     4 1   
     9     3     5 1   
    10     3    17 1   
    11     4    28 1   
    12     4    29 1   
    13     4    30 1   
    14     5    31 1   
    15     5    32 1   
    16     5    33 1   
    17     6     7 ar  
    18     6    16 ar  
    19     6    34 1   
    20     7    12 ar  
    21     7    24 1   
    22     8     9 1   
    23     8    13 1   
    24     8    24 1   
    25     8    35 1   
    26     9    10 1   
    27     9    36 1   
    28     9    37 1   
    29    10    11 1   
    30    10    38 1   
    31    10    39 1   
    32    11    13 1   
    33    11    40 1   
    34    11    41 1   
    35    12    14 ar  
    36    12    22 1   
    37    13    42 1   
    38    13    43 1   
    39    14    15 ar  
    40    14    44 1   
    41    15    16 ar  
    42    15    45 1   
    43    16    17 1   
    44    17    20 2   
    45    18    47 1   
    46    18    48 1   
    47    18    49 1   
    48    18    53 1   
    49    19    50 1   
    50    19    51 1   
    51    19    52 1   
    52    19    53 1   
    53    20    21 1   
    54    21    53 1   
    55    46    53 1   
@<TRIPOS>SUBSTRUCTURE
     1 863         1 TEMP              0 ****  ****    0 ROOT
