@<TRIPOS>MOLECULE
864
   58    59     1     0     0
SMALL
No Charge or Current Charge


@<TRIPOS>ATOM
      1 C1          37.0790    11.7160    59.8220 c3         1 864      -0.119400
      2 C2          37.3150    11.6680    61.3570 c          1 864       0.738000
      3 C3          38.4150    11.5520    59.0870 ca         1 864       0.005700
      4 C4          39.3510    12.6060    59.0260 ca         1 864      -0.093000
      5 C5          40.5700    12.4400    58.3480 ca         1 864      -0.138000
      6 C6          40.8680    11.2190    57.7240 ca         1 864      -0.158000
      7 C7          39.9500    10.1530    57.7770 ca         1 864      -0.116300
      8 C8          38.7290    10.3270    58.4600 ca         1 864      -0.090000
      9 C9          40.2660     8.8290    57.0950 c3         1 864       0.208100
     10 N10         40.8770     7.8750    58.0320 n8         1 864      -0.982200
     11 O13         37.8620    12.6250    61.8860 o          1 864      -0.740500
     12 O14         36.9570    10.6740    61.9710 o          1 864      -0.740500
     13 C15         36.2960    12.9880    59.3430 c3         1 864      -0.410400
     14 P24         34.5580    13.2020    59.9550 p5         1 864       1.377000
     15 C25         34.6250    14.4910    61.3320 c3         1 864      -0.209300
     16 C26         34.6270    15.9890    60.8750 c3         1 864      -0.041700
     17 C27         35.9450    16.4430    60.2050 c3         1 864      -0.079100
     18 C28         34.2420    16.9540    62.0220 c3         1 864      -0.079100
     19 N29         35.5870    14.2150    62.4450 ns         1 864      -0.455900
     20 C30         35.2870    14.2420    63.7820 c          1 864       0.635100
     21 O31         34.1910    14.4980    64.2580 o          1 864      -0.615000
     22 O32         36.4040    13.9350    64.4930 os         1 864      -0.442100
     23 C33         36.2890    13.8820    65.9230 c3         1 864       0.236900
     24 O34         33.7110    13.6960    58.8230 o          1 864      -0.819000
     25 O35         34.0520    11.9000    60.4940 o          1 864      -0.819000
     26 C36         37.6490    13.5240    66.5140 ca         1 864      -0.078300
     27 C37         38.2870    14.3960    67.4200 ca         1 864      -0.088000
     28 C38         39.5370    14.0570    67.9690 ca         1 864      -0.128500
     29 C39         40.1560    12.8470    67.6170 ca         1 864      -0.137000
     30 C40         39.5270    11.9740    66.7140 ca         1 864      -0.128500
     31 C41         38.2770    12.3110    66.1640 ca         1 864      -0.088000
     32 H1          36.4700    10.8380    59.5770 hc         1 864       0.069700
     33 H4          39.1370    13.5550    59.5110 ha         1 864       0.133000
     34 H5          41.2840    13.2590    58.3080 ha         1 864       0.079000
     35 H6          41.8140    11.1000    57.2000 ha         1 864       0.069000
     36 H8          38.0220     9.5010    58.5010 ha         1 864       0.128000
     37 H91         39.3470     8.3840    56.6910 h1         1 864       0.010200
     38 H92         40.9640     8.9940    56.2630 h1         1 864       0.010200
     39 H101        41.1680     7.0420    57.5100 hn         1 864       0.380500
     40 H102        41.7580     8.2770    58.3690 hn         1 864       0.380500
     41 H151        36.8510    13.8830    59.6290 hc         1 864       0.037700
     42 H152        36.2330    12.9820    58.2500 hc         1 864       0.037700
     43 H25         33.6250    14.3100    61.7440 h1         1 864       0.066700
     44 H26         33.8380    16.0970    60.1190 hc         1 864       0.055700
     45 H271        35.9280    17.5220    60.0100 hc         1 864       0.018033
     46 H272        36.8110    16.2270    60.8430 hc         1 864       0.018033
     47 H273        36.0840    15.9470    59.2380 hc         1 864       0.018033
     48 H281        35.0170    16.9790    62.7970 hc         1 864       0.018033
     49 H282        34.1140    17.9750    61.6410 hc         1 864       0.018033
     50 H283        33.2960    16.6500    62.4850 hc         1 864       0.018033
     51 HN29        36.5280    13.8730    62.2350 hn         1 864       0.387500
     52 H331        35.9560    14.8510    66.3180 h1         1 864       0.035700
     53 H332        35.5570    13.1210    66.2240 h1         1 864       0.035700
     54 H37         37.8150    15.3360    67.7010 ha         1 864       0.144500
     55 H38         40.0240    14.7330    68.6680 ha         1 864       0.098000
     56 H39         41.1230    12.5860    68.0410 ha         1 864       0.085000
     57 H40         40.0060    11.0370    66.4390 ha         1 864       0.098000
     58 H41         37.7960    11.6330    65.4620 ha         1 864       0.144500
@<TRIPOS>BOND
     1     1     2 1   
     2     1     3 1   
     3     1    13 1   
     4     1    32 1   
     5     2    11 1   
     6     2    12 1   
     7     3     4 ar  
     8     3     8 ar  
     9     4     5 ar  
    10     4    33 1   
    11     5     6 ar  
    12     5    34 1   
    13     6     7 ar  
    14     6    35 1   
    15     7     8 ar  
    16     7     9 1   
    17     8    36 1   
    18     9    10 1   
    19     9    37 1   
    20     9    38 1   
    21    10    39 1   
    22    10    40 1   
    23    13    14 1   
    24    13    41 1   
    25    13    42 1   
    26    14    15 1   
    27    14    24 1   
    28    14    25 1   
    29    15    16 1   
    30    15    19 1   
    31    15    43 1   
    32    16    17 1   
    33    16    18 1   
    34    16    44 1   
    35    17    45 1   
    36    17    46 1   
    37    17    47 1   
    38    18    48 1   
    39    18    49 1   
    40    18    50 1   
    41    19    20 1   
    42    19    51 1   
    43    20    21 2   
    44    20    22 1   
    45    22    23 1   
    46    23    26 1   
    47    23    52 1   
    48    23    53 1   
    49    26    27 ar  
    50    26    31 ar  
    51    27    28 ar  
    52    27    54 1   
    53    28    29 ar  
    54    28    55 1   
    55    29    30 ar  
    56    29    56 1   
    57    30    31 ar  
    58    30    57 1   
    59    31    58 1   
@<TRIPOS>SUBSTRUCTURE
     1 864         1 TEMP              0 ****  ****    0 ROOT
