@<TRIPOS>MOLECULE
864
   58    59     1     0     0
SMALL
abcg2


@<TRIPOS>ATOM
      1 C1          37.3990    11.8100    60.0890 c3         1 864      -0.119400
      2 C2          37.9160    11.9810    61.5370 c          1 864       0.738000
      3 C3          38.6100    11.6080    59.2070 ca         1 864       0.005700
      4 C4          39.5360    12.6330    59.0040 ca         1 864      -0.093000
      5 C5          40.6440    12.4260    58.1990 ca         1 864      -0.138000
      6 C6          40.8460    11.1970    57.5820 ca         1 864      -0.158000
      7 C7          39.9360    10.1630    57.7650 ca         1 864      -0.116300
      8 C8          38.8300    10.3840    58.5840 ca         1 864      -0.090000
      9 C9          40.1270     8.8410    57.0640 c3         1 864       0.208100
     10 N10         39.8100     7.7150    57.9270 n8         1 864      -0.982200
     11 O13         38.1310    13.1570    61.9270 o          1 864      -0.740500
     12 O14         38.1360    10.9450    62.1820 o          1 864      -0.740500
     13 C15         36.5350    12.9680    59.5930 c3         1 864      -0.410400
     14 P24         34.7890    13.0090    60.2360 p5         1 864       1.377000
     15 C25         34.6440    14.4690    61.4010 c3         1 864      -0.209300
     16 C26         34.5350    15.8570    60.7480 c3         1 864      -0.041700
     17 C27         35.7870    16.2980    59.9980 c3         1 864      -0.079100
     18 C28         34.1360    16.9150    61.7740 c3         1 864      -0.079100
     19 N29         35.6470    14.4030    62.4430 ns         1 864      -0.455900
     20 C30         35.3370    14.3640    63.7470 c          1 864       0.635100
     21 O31         34.2300    14.4660    64.2420 o          1 864      -0.615000
     22 O32         36.4520    14.2040    64.4850 os         1 864      -0.442100
     23 C33         36.3100    14.0180    65.8790 c3         1 864       0.236900
     24 O34         33.8710    13.3060    59.0660 o          1 864      -0.819000
     25 O35         34.5510    11.7680    61.0750 o          1 864      -0.819000
     26 C36         37.6430    13.6100    66.4490 ca         1 864      -0.078300
     27 C37         37.8290    13.6970    67.8270 ca         1 864      -0.088000
     28 C38         39.0210    13.2950    68.4100 ca         1 864      -0.128500
     29 C39         40.0520    12.8030    67.6190 ca         1 864      -0.137000
     30 C40         39.8740    12.7180    66.2460 ca         1 864      -0.128500
     31 C41         38.6780    13.1150    65.6600 ca         1 864      -0.088000
     32 H1          36.8120    10.8910    60.0530 hc         1 864       0.069700
     33 H4          39.3940    13.5920    59.4860 ha         1 864       0.133000
     34 H5          41.3610    13.2250    58.0530 ha         1 864       0.079000
     35 H6          41.7180    11.0420    56.9570 ha         1 864       0.069000
     36 H8          38.1200     9.5800    58.7390 ha         1 864       0.128000
     37 H91         39.4490     8.8000    56.2060 h1         1 864       0.010200
     38 H92         41.1420     8.8100    56.6450 h1         1 864       0.010200
     39 H101        39.8610     6.8570    57.3920 hn         1 864       0.380500
     40 H102        40.5130     7.6350    58.6520 hn         1 864       0.380500
     41 H151        37.0400    13.9150    59.7910 hc         1 864       0.037700
     42 H152        36.4350    12.9050    58.5050 hc         1 864       0.037700
     43 H25         33.6740    14.2760    61.8700 h1         1 864       0.066700
     44 H26         33.7220    15.7760    60.0220 hc         1 864       0.055700
     45 H271        35.6800    17.3260    59.6480 hc         1 864       0.018033
     46 H272        36.6730    16.2650    60.6380 hc         1 864       0.018033
     47 H273        35.9800    15.6790    59.1230 hc         1 864       0.018033
     48 H281        34.9200    17.0660    62.5190 hc         1 864       0.018033
     49 H282        33.9620    17.8770    61.2870 hc         1 864       0.018033
     50 H283        33.2210    16.6400    62.3010 hc         1 864       0.018033
     51 HN29        36.5960    14.1060    62.1900 hn         1 864       0.387500
     52 H331        35.9640    14.9360    66.3630 h1         1 864       0.035700
     53 H332        35.5680    13.2440    66.0930 h1         1 864       0.035700
     54 H37         37.0330    14.0870    68.4520 ha         1 864       0.144500
     55 H38         39.1470    13.3710    69.4830 ha         1 864       0.098000
     56 H39         40.9850    12.4920    68.0700 ha         1 864       0.085000
     57 H40         40.6730    12.3390    65.6200 ha         1 864       0.098000
     58 H41         38.5660    13.0440    64.5860 ha         1 864       0.144500
@<TRIPOS>BOND
     1     1     2 1   
     2     1     3 1   
     3     1    13 1   
     4     1    32 1   
     5     2    11 1   
     6     2    12 1   
     7     3     4 ar  
     8     3     8 ar  
     9     4     5 ar  
    10     4    33 1   
    11     5     6 ar  
    12     5    34 1   
    13     6     7 ar  
    14     6    35 1   
    15     7     8 ar  
    16     7     9 1   
    17     8    36 1   
    18     9    10 1   
    19     9    37 1   
    20     9    38 1   
    21    10    39 1   
    22    10    40 1   
    23    13    14 1   
    24    13    41 1   
    25    13    42 1   
    26    14    15 1   
    27    14    24 1   
    28    14    25 1   
    29    15    16 1   
    30    15    19 1   
    31    15    43 1   
    32    16    17 1   
    33    16    18 1   
    34    16    44 1   
    35    17    45 1   
    36    17    46 1   
    37    17    47 1   
    38    18    48 1   
    39    18    49 1   
    40    18    50 1   
    41    19    20 1   
    42    19    51 1   
    43    20    21 2   
    44    20    22 1   
    45    22    23 1   
    46    23    26 1   
    47    23    52 1   
    48    23    53 1   
    49    26    27 ar  
    50    26    31 ar  
    51    27    28 ar  
    52    27    54 1   
    53    28    29 ar  
    54    28    55 1   
    55    29    30 ar  
    56    29    56 1   
    57    30    31 ar  
    58    30    57 1   
    59    31    58 1   
@<TRIPOS>SUBSTRUCTURE
     1 864         1 TEMP              0 ****  ****    0 ROOT
