@<TRIPOS>MOLECULE
865
   82    88     1     0     0
SMALL
No Charge or Current Charge


@<TRIPOS>ATOM
      1 C01          4.8000     2.7070     0.3440 c3         1 865      -0.053800
      2 C02          4.6970     1.4870    -0.5680 ca         1 865      -0.020300
      3 C03          5.8720     0.8120    -0.9340 ca         1 865      -0.196000
      4 C04          5.8050    -0.2870    -1.7980 ca         1 865       0.356900
      5 N05          4.6500    -0.7330    -2.3290 nb         1 865      -0.708000
      6 C06          3.5060    -0.0980    -1.9880 ca         1 865       0.472500
      7 C07          3.4570     1.0150    -1.0780 cp         1 865      -0.066000
      8 C08          2.1810     1.7170    -0.7160 cp         1 865      -0.075000
      9 C09          1.8190     2.8960    -1.4220 ca         1 865      -0.116000
     10 C10          0.5660     3.5220    -1.2260 ca         1 865      -0.167000
     11 C11         -0.3700     2.9780    -0.3240 ca         1 865      -0.062000
     12 C12          0.0040     1.8350     0.3960 ca         1 865      -0.088800
     13 C13         -0.7330     1.0420     1.3380 cc         1 865      -0.159400
     14 C14         -2.1620     1.3350     1.7410 c3         1 865       0.026800
     15 C15         -3.1860     0.6870     0.7880 c3         1 865      -0.079400
     16 C16         -4.6430     1.0020     1.1690 c3         1 865       0.162600
     17 O17         -5.4920     0.3590     0.2040 os         1 865      -0.342100
     18 C18         -6.8720     0.4440     0.2540 ca         1 865       0.187100
     19 C19         -7.5320     1.1740     1.2690 ca         1 865      -0.233000
     20 C20         -8.9340     1.2440     1.2940 ca         1 865      -0.059000
     21 C21         -9.6890     0.5890     0.3100 ca         1 865      -0.162000
     22 C22         -9.0470    -0.1410    -0.7050 ca         1 865      -0.003000
     23 C23         -9.8150    -0.7940    -1.6880 ca         1 865      -0.123000
     24 C24         -9.1840    -1.5260    -2.7070 ca         1 865      -0.098000
     25 C25         -7.7830    -1.6060    -2.7470 ca         1 865      -0.139000
     26 C26         -7.0100    -0.9560    -1.7690 ca         1 865      -0.056000
     27 C27         -7.6350    -0.2170    -0.7390 ca         1 865      -0.064000
     28 C28          0.1290    -0.0080     1.7280 cd         1 865      -0.054300
     29 C29         -0.2180    -1.1150     2.6990 c          1 865       0.729200
     30 O30          0.6400    -1.9410     2.9790 o          1 865      -0.706500
     31 O31         -1.3410    -1.1830     3.1770 o          1 865      -0.706500
     32 N32          1.3960     0.1720     1.0870 na         1 865      -0.052700
     33 C33          2.7080    -0.2090     1.6620 c3         1 865       0.011600
     34 C34          3.3380    -1.4860     1.0780 c          1 865       0.617100
     35 O35          2.6770    -2.2880     0.4300 o          1 865      -0.564100
     36 N36          4.7310    -1.6810     1.2480 n          1 865      -0.418800
     37 C37          5.3670    -2.9160     0.6880 c6         1 865       0.066500
     38 C38          6.9210    -2.9140     0.6680 c6         1 865       0.126300
     39 N39          7.4950    -2.4780     1.9590 n7         1 865      -0.850400
     40 C40          7.0180    -1.1200     2.3000 c6         1 865       0.126300
     41 C41          5.4680    -1.0450     2.3910 c6         1 865       0.066500
     42 C42          1.2250     1.2640     0.2380 ca         1 865      -0.029200
     43 N43          2.2540    -0.4200    -2.5080 na         1 865      -0.181000
     44 C44          1.5610     0.3450    -3.4210 cc         1 865      -0.191000
     45 C45          0.5520    -0.4830    -3.8430 cd         1 865       0.228900
     46 N46          0.6840    -1.7480    -3.2890 nd         1 865      -0.682000
     47 C47          1.7600    -1.6960    -2.5100 cc         1 865       0.435400
     48 H1           4.8570     3.6270    -0.2480 hc         1 865       0.051367
     49 H2           3.9370     2.7970     1.0130 hc         1 865       0.051367
     50 H3           5.6950     2.6600     0.9750 hc         1 865       0.051367
     51 H4           6.8400     1.1360    -0.5610 ha         1 865       0.119000
     52 H5           6.7090    -0.8180    -2.0920 h4         1 865       0.018100
     53 H6           2.5080     3.3100    -2.1550 ha         1 865       0.094000
     54 H7           0.3120     4.4130    -1.7960 ha         1 865       0.096000
     55 H8          -1.3480     3.4330    -0.1970 ha         1 865       0.107000
     56 H9          -2.3590     1.0290     2.7730 hc         1 865       0.039700
     57 H10         -2.3210     2.4200     1.7370 hc         1 865       0.039700
     58 H11         -2.9970     1.0370    -0.2340 hc         1 865       0.066700
     59 H12         -3.0400    -0.4000     0.7910 hc         1 865       0.066700
     60 H13         -4.8480     0.6250     2.1800 h1         1 865       0.032200
     61 H14         -4.7980     2.0890     1.1580 h1         1 865       0.032200
     62 H15         -6.9770     1.6920     2.0440 ha         1 865       0.121000
     63 H16         -9.4370     1.8080     2.0780 ha         1 865       0.101000
     64 H17        -10.7750     0.6500     0.3390 ha         1 865       0.105000
     65 H18        -10.9000    -0.7360    -1.6630 ha         1 865       0.103000
     66 H19         -9.7800    -2.0300    -3.4650 ha         1 865       0.102000
     67 H20         -7.2940    -2.1730    -3.5360 ha         1 865       0.110000
     68 H21         -5.9260    -1.0310    -1.8190 ha         1 865       0.137000
     69 H23          3.4040     0.6190     1.5280 h1         1 865       0.075200
     70 H24          2.6050    -0.3540     2.7420 h1         1 865       0.075200
     71 H25          5.0260    -3.7760     1.2830 h1         1 865       0.056950
     72 H26          5.0110    -3.0770    -0.3390 h1         1 865       0.056950
     73 H27          7.2830    -3.9230     0.4190 h1         1 865       0.053700
     74 H28          7.2670    -2.2390    -0.1290 h1         1 865       0.053700
     75 H29          7.1830    -3.1280     2.6920 hn         1 865       0.398000
     76 H31          7.4550    -0.8000     3.2570 h1         1 865       0.053700
     77 H32          7.3640    -0.4120     1.5310 h1         1 865       0.053700
     78 H33          5.1980     0.0160     2.4800 h1         1 865       0.056950
     79 H34          5.1470    -1.5360     3.3210 h1         1 865       0.056950
     80 H35          1.8070     1.3660    -3.6810 h4         1 865       0.170000
     81 H36         -0.2400    -0.2540    -4.5460 h4         1 865       0.030100
     82 H37          2.2160    -2.5190    -1.9740 h5         1 865       0.057100
@<TRIPOS>BOND
     1     1     2 1   
     2     1    48 1   
     3     1    49 1   
     4     1    50 1   
     5     2     3 ar  
     6     2     7 ar  
     7     3     4 ar  
     8     3    51 1   
     9     4     5 ar  
    10     4    52 1   
    11     5     6 ar  
    12     6     7 ar  
    13     6    43 1   
    14     7     8 1   
    15     8     9 ar  
    16     8    42 ar  
    17     9    10 ar  
    18     9    53 1   
    19    10    11 ar  
    20    10    54 1   
    21    11    12 ar  
    22    11    55 1   
    23    12    13 1   
    24    12    42 ar  
    25    13    14 1   
    26    13    28 2   
    27    14    15 1   
    28    14    56 1   
    29    14    57 1   
    30    15    16 1   
    31    15    58 1   
    32    15    59 1   
    33    16    17 1   
    34    16    60 1   
    35    16    61 1   
    36    17    18 1   
    37    18    19 ar  
    38    18    27 ar  
    39    19    20 ar  
    40    19    62 1   
    41    20    21 ar  
    42    20    63 1   
    43    21    22 ar  
    44    21    64 1   
    45    22    23 ar  
    46    22    27 ar  
    47    23    24 ar  
    48    23    65 1   
    49    24    25 ar  
    50    24    66 1   
    51    25    26 ar  
    52    25    67 1   
    53    26    27 ar  
    54    26    68 1   
    55    28    29 1   
    56    28    32 1   
    57    29    30 1   
    58    29    31 1   
    59    32    33 1   
    60    32    42 1   
    61    33    34 1   
    62    33    69 1   
    63    33    70 1   
    64    34    35 2   
    65    34    36 1   
    66    36    37 1   
    67    36    41 1   
    68    37    38 1   
    69    37    71 1   
    70    37    72 1   
    71    38    39 1   
    72    38    73 1   
    73    38    74 1   
    74    39    40 1   
    75    39    75 1   
    76    40    41 1   
    77    40    76 1   
    78    40    77 1   
    79    41    78 1   
    80    41    79 1   
    81    43    44 1   
    82    43    47 1   
    83    44    45 2   
    84    44    80 1   
    85    45    46 1   
    86    45    81 1   
    87    46    47 2   
    88    47    82 1   
@<TRIPOS>SUBSTRUCTURE
     1 865         1 TEMP              0 ****  ****    0 ROOT
