@<TRIPOS>MOLECULE
865
   82    88     1     0     0
SMALL
abcg2


@<TRIPOS>ATOM
      1 C01          4.6930     3.3920     0.6800 c3         1 865      -0.053800
      2 C02          4.8760     2.1960    -0.2030 ca         1 865      -0.020300
      3 C03          6.1310     1.6210    -0.3590 ca         1 865      -0.196000
      4 C04          6.2590     0.5060    -1.1650 ca         1 865       0.356900
      5 N05          5.2420    -0.0290    -1.8200 nb         1 865      -0.708000
      6 C06          4.0410     0.5090    -1.6780 ca         1 865       0.472500
      7 C07          3.7840     1.6180    -0.8650 cp         1 865      -0.066000
      8 C08          2.4340     2.2130    -0.7010 cp         1 865      -0.075000
      9 C09          2.1020     3.2970    -1.5000 ca         1 865      -0.116000
     10 C10          0.8290     3.8790    -1.4860 ca         1 865      -0.167000
     11 C11         -0.1540     3.3790    -0.6590 ca         1 865      -0.062000
     12 C12          0.1550     2.3120     0.1890 ca         1 865      -0.088800
     13 C13         -0.6210     1.6120     1.1580 cc         1 865      -0.159400
     14 C14         -2.0690     1.8850     1.4130 c3         1 865       0.026800
     15 C15         -2.9800     0.9390     0.6300 c3         1 865      -0.079400
     16 C16         -4.4370     1.1860     0.9580 c3         1 865       0.162600
     17 O17         -5.2220     0.2960     0.1780 os         1 865      -0.342100
     18 C18         -6.5570     0.3020     0.3150 ca         1 865       0.187100
     19 C19         -7.2510     1.1280     1.1650 ca         1 865      -0.233000
     20 C20         -8.6580     1.0490     1.2340 ca         1 865      -0.059000
     21 C21         -9.3580     0.1620     0.4690 ca         1 865      -0.162000
     22 C22         -8.6690    -0.7010    -0.4180 ca         1 865      -0.003000
     23 C23         -9.3600    -1.6330    -1.2270 ca         1 865      -0.123000
     24 C24         -8.6850    -2.4620    -2.0810 ca         1 865      -0.098000
     25 C25         -7.2800    -2.3960    -2.1650 ca         1 865      -0.139000
     26 C26         -6.5800    -1.5050    -1.3950 ca         1 865      -0.056000
     27 C27         -7.2550    -0.6380    -0.5040 ca         1 865      -0.064000
     28 C28          0.2030     0.6620     1.7120 cd         1 865      -0.054300
     29 C29         -0.1590    -0.3730     2.7530 c          1 865       0.729200
     30 O30          0.6990    -1.2260     3.0550 o          1 865      -0.706500
     31 O31         -1.3110    -0.2910     3.2180 o          1 865      -0.706500
     32 N32          1.4650     0.7670     1.1420 na         1 865      -0.052700
     33 C33          2.6190     0.0110     1.5430 c3         1 865       0.011600
     34 C34          2.6470    -1.3550     0.8710 c          1 865       0.617100
     35 O35          1.8130    -1.6490     0.0330 o          1 865      -0.564100
     36 N36          3.6590    -2.1780     1.2200 n          1 865      -0.418800
     37 C37          3.8110    -3.4810     0.5940 c6         1 865       0.066500
     38 C38          5.2260    -3.6290     0.0440 c6         1 865       0.126300
     39 N39          6.2600    -3.3830     1.0350 n7         1 865      -0.850400
     40 C40          6.0570    -2.1020     1.6870 c6         1 865       0.126300
     41 C41          4.6500    -1.9150     2.2490 c6         1 865       0.066500
     42 C42          1.4500     1.7420     0.1850 ca         1 865      -0.029200
     43 N43          3.0400    -0.1570    -2.4170 na         1 865      -0.181000
     44 C44          1.8790     0.3230    -2.9810 cc         1 865      -0.191000
     45 C45          1.3170    -0.7390    -3.6160 cd         1 865       0.228900
     46 N46          2.0890    -1.8600    -3.4550 nd         1 865      -0.682000
     47 C47          3.1050    -1.4800    -2.7400 cc         1 865       0.435400
     48 H1           4.4800     4.2830     0.0890 hc         1 865       0.051367
     49 H2           3.8530     3.2610     1.3630 hc         1 865       0.051367
     50 H3           5.5890     3.5830     1.2670 hc         1 865       0.051367
     51 H4           6.9950     2.0300     0.1470 ha         1 865       0.119000
     52 H5           7.2230     0.0280    -1.2960 h4         1 865       0.018100
     53 H6           2.8470     3.6800    -2.1870 ha         1 865       0.094000
     54 H7           0.6210     4.7140    -2.1430 ha         1 865       0.096000
     55 H8          -1.1480     3.8110    -0.6580 ha         1 865       0.107000
     56 H9          -2.2890     1.8020     2.4750 hc         1 865       0.039700
     57 H10         -2.2900     2.9160     1.1200 hc         1 865       0.039700
     58 H11         -2.8140     1.0720    -0.4430 hc         1 865       0.066700
     59 H12         -2.7200    -0.0910     0.8800 hc         1 865       0.066700
     60 H13         -4.6160     1.0120     2.0250 h1         1 865       0.032200
     61 H14         -4.7150     2.2240     0.7400 h1         1 865       0.032200
     62 H15         -6.7420     1.8490     1.7900 ha         1 865       0.121000
     63 H16         -9.1810     1.7110     1.9130 ha         1 865       0.101000
     64 H17        -10.4380     0.1070     0.5310 ha         1 865       0.105000
     65 H18        -10.4410    -1.6810    -1.1580 ha         1 865       0.103000
     66 H19         -9.2280    -3.1700    -2.6930 ha         1 865       0.102000
     67 H20         -6.7510    -3.0530    -2.8430 ha         1 865       0.110000
     68 H21         -5.5020    -1.4680    -1.4720 ha         1 865       0.137000
     69 H23          3.5160     0.5680     1.2780 h1         1 865       0.075200
     70 H24          2.6250    -0.0900     2.6230 h1         1 865       0.075200
     71 H25          3.6230    -4.2620     1.3410 h1         1 865       0.056950
     72 H26          3.0720    -3.5910    -0.1960 h1         1 865       0.056950
     73 H27          5.3540    -4.6310    -0.3690 h1         1 865       0.053700
     74 H28          5.3630    -2.9180    -0.7780 h1         1 865       0.053700
     75 H29          6.2310    -4.1190     1.7320 hn         1 865       0.398000
     76 H31          6.7860    -1.9850     2.4910 h1         1 865       0.053700
     77 H32          6.2500    -1.3100     0.9580 h1         1 865       0.053700
     78 H33          4.5480    -0.9100     2.6500 h1         1 865       0.056950
     79 H34          4.4930    -2.6120     3.0810 h1         1 865       0.056950
     80 H35          1.5700     1.3490    -2.9190 h4         1 865       0.170000
     81 H36          0.4010    -0.7500    -4.1870 h4         1 865       0.030100
     82 H37          3.9190    -2.1050    -2.4130 h5         1 865       0.057100
@<TRIPOS>BOND
     1     1     2 1   
     2     1    48 1   
     3     1    49 1   
     4     1    50 1   
     5     2     3 ar  
     6     2     7 ar  
     7     3     4 ar  
     8     3    51 1   
     9     4     5 ar  
    10     4    52 1   
    11     5     6 ar  
    12     6     7 ar  
    13     6    43 1   
    14     7     8 1   
    15     8     9 ar  
    16     8    42 ar  
    17     9    10 ar  
    18     9    53 1   
    19    10    11 ar  
    20    10    54 1   
    21    11    12 ar  
    22    11    55 1   
    23    12    13 1   
    24    12    42 ar  
    25    13    14 1   
    26    13    28 2   
    27    14    15 1   
    28    14    56 1   
    29    14    57 1   
    30    15    16 1   
    31    15    58 1   
    32    15    59 1   
    33    16    17 1   
    34    16    60 1   
    35    16    61 1   
    36    17    18 1   
    37    18    19 ar  
    38    18    27 ar  
    39    19    20 ar  
    40    19    62 1   
    41    20    21 ar  
    42    20    63 1   
    43    21    22 ar  
    44    21    64 1   
    45    22    23 ar  
    46    22    27 ar  
    47    23    24 ar  
    48    23    65 1   
    49    24    25 ar  
    50    24    66 1   
    51    25    26 ar  
    52    25    67 1   
    53    26    27 ar  
    54    26    68 1   
    55    28    29 1   
    56    28    32 1   
    57    29    30 1   
    58    29    31 1   
    59    32    33 1   
    60    32    42 1   
    61    33    34 1   
    62    33    69 1   
    63    33    70 1   
    64    34    35 2   
    65    34    36 1   
    66    36    37 1   
    67    36    41 1   
    68    37    38 1   
    69    37    71 1   
    70    37    72 1   
    71    38    39 1   
    72    38    73 1   
    73    38    74 1   
    74    39    40 1   
    75    39    75 1   
    76    40    41 1   
    77    40    76 1   
    78    40    77 1   
    79    41    78 1   
    80    41    79 1   
    81    43    44 1   
    82    43    47 1   
    83    44    45 2   
    84    44    80 1   
    85    45    46 1   
    86    45    81 1   
    87    46    47 2   
    88    47    82 1   
@<TRIPOS>SUBSTRUCTURE
     1 865         1 TEMP              0 ****  ****    0 ROOT
