@<TRIPOS>MOLECULE
866
   58    60     1     0     0
SMALL
No Charge or Current Charge


@<TRIPOS>ATOM
      1 C1          -5.3350     2.0930     1.5750 c3         1 866      -0.118100
      2 C2          -4.4720     0.8190     1.6070 c3         1 866       0.102000
      3 N1          -3.6390     0.6470     0.3890 n          1 866      -0.384800
      4 C3          -2.3890     1.4540     0.2940 c3         1 866       0.061000
      5 C4          -1.0400     0.6860     0.4960 c3         1 866       0.097000
      6 O1          -0.9470    -0.3430    -0.5230 oh         1 866      -0.669000
      7 C5           0.1340     1.6930     0.2640 c3         1 866       0.100000
      8 N2           1.4000     1.0290    -0.0700 ns         1 866      -0.487900
      9 C6           2.6490     1.5230     0.2070 c          1 866       0.674700
     10 O2           2.8110     2.6130     0.7350 o          1 866      -0.652100
     11 C7           3.7400     0.6280    -0.1840 cc         1 866      -0.364600
     12 C8           3.6160    -0.6490    -0.7770 cc         1 866       0.309900
     13 N3           4.7610    -1.2630    -1.0230 nd         1 866      -0.516800
     14 N4           5.6540    -0.3120    -0.5640 na         1 866       0.168000
     15 C9           5.0650     0.8550    -0.0400 cd         1 866       0.326000
     16 N5           5.7360     1.9310     0.4790 nv         1 866      -1.067000
     17 C10          7.0450    -0.4170    -0.5480 ca         1 866      -0.008200
     18 C11          7.6850    -1.1560     0.4680 ca         1 866      -0.078000
     19 C12          9.0880    -1.2660     0.4830 ca         1 866      -0.146500
     20 C13          9.8490    -0.6420    -0.5170 ca         1 866       0.175000
     21 F1          11.1960    -0.7500    -0.5020 f          1 866      -0.173000
     22 C14          9.2190     0.0910    -1.5350 ca         1 866      -0.146500
     23 C15          7.8170     0.2030    -1.5520 ca         1 866      -0.078000
     24 C16         -0.9320     0.0320     1.9290 c3         1 866       0.286000
     25 F2          -1.8650    -0.9290     2.1190 f          1 866      -0.112333
     26 F3           0.2760    -0.5480     2.1270 f          1 866      -0.112333
     27 F4          -1.0990     0.9580     2.9030 f          1 866      -0.112333
     28 C17         -4.0850    -0.1020    -0.7250 c          1 866       0.634700
     29 O3          -3.3690    -0.2300    -1.7110 o          1 866      -0.600100
     30 C18         -5.4200    -0.7700    -0.6580 ca         1 866      -0.130600
     31 C19         -5.5750    -2.0030     0.0050 ca         1 866       0.148000
     32 Cl1         -4.2020    -2.8000     0.7680 cl         1 866      -0.170500
     33 C20         -6.8340    -2.6250     0.0570 ca         1 866      -0.104500
     34 C21         -7.9440    -2.0250    -0.5590 ca         1 866      -0.079000
     35 C22         -7.7900    -0.8030    -1.2360 ca         1 866      -0.104500
     36 C23         -6.5320    -0.1800    -1.2900 ca         1 866       0.148000
     37 Cl2         -6.3760     1.3500    -2.1510 cl         1 866      -0.170500
     38 H1          -4.7110     2.9870     1.4630 hc         1 866       0.046033
     39 H1A         -6.0460     2.0600     0.7420 hc         1 866       0.046033
     40 H1B         -5.9050     2.1870     2.5070 hc         1 866       0.046033
     41 H2          -3.8090     0.8750     2.4790 h1         1 866       0.064200
     42 H2A         -5.1160    -0.0530     1.7640 h1         1 866       0.064200
     43 H3          -2.3750     1.9490    -0.6870 h1         1 866       0.072200
     44 H3A         -2.4360     2.2640     1.0350 h1         1 866       0.072200
     45 HO1         -1.8070    -0.3340    -1.0250 ho         1 866       0.504000
     46 H5          -0.1150     2.3630    -0.5700 h1         1 866       0.069200
     47 H5A          0.2680     2.3190     1.1570 h1         1 866       0.069200
     48 HN2          1.3410     0.1160    -0.5020 hn         1 866       0.328500
     49 H8           2.7010    -1.1640    -1.0380 h4         1 866       0.039100
     50 HN5          5.1970     2.6620     0.9440 hn         1 866       0.489000
     51 HN5A         6.7300     1.8650     0.6920 hn         1 866       0.489000
     52 H11          7.0950    -1.6420     1.2430 ha         1 866       0.140500
     53 H12          9.5840    -1.8340     1.2660 ha         1 866       0.138500
     54 H14          9.8170     0.5690    -2.3070 ha         1 866       0.138500
     55 H15          7.3280     0.7700    -2.3420 ha         1 866       0.140500
     56 H20         -6.9470    -3.5760     0.5730 ha         1 866       0.138500
     57 H21         -8.9190    -2.5070    -0.5190 ha         1 866       0.127000
     58 H22         -8.6450    -0.3380    -1.7200 ha         1 866       0.138500
@<TRIPOS>BOND
     1     1     2 1   
     2     1    38 1   
     3     1    39 1   
     4     1    40 1   
     5     2     3 1   
     6     2    41 1   
     7     2    42 1   
     8     3     4 1   
     9     3    28 1   
    10     4     5 1   
    11     4    43 1   
    12     4    44 1   
    13     5     6 1   
    14     5     7 1   
    15     5    24 1   
    16     6    45 1   
    17     7     8 1   
    18     7    46 1   
    19     7    47 1   
    20     8     9 1   
    21     8    48 1   
    22     9    10 2   
    23     9    11 1   
    24    11    12 1   
    25    11    15 2   
    26    12    13 2   
    27    12    49 1   
    28    13    14 1   
    29    14    15 1   
    30    14    17 1   
    31    15    16 1   
    32    16    50 1   
    33    16    51 1   
    34    17    18 ar  
    35    17    23 ar  
    36    18    19 ar  
    37    18    52 1   
    38    19    20 ar  
    39    19    53 1   
    40    20    21 1   
    41    20    22 ar  
    42    22    23 ar  
    43    22    54 1   
    44    23    55 1   
    45    24    25 1   
    46    24    26 1   
    47    24    27 1   
    48    28    29 2   
    49    28    30 1   
    50    30    31 ar  
    51    30    36 ar  
    52    31    32 1   
    53    31    33 ar  
    54    33    34 ar  
    55    33    56 1   
    56    34    35 ar  
    57    34    57 1   
    58    35    36 ar  
    59    35    58 1   
    60    36    37 1   
@<TRIPOS>SUBSTRUCTURE
     1 866         1 TEMP              0 ****  ****    0 ROOT
