@<TRIPOS>MOLECULE
866
   58    60     1     0     0
SMALL
abcg2


@<TRIPOS>ATOM
      1 C1          -4.9920     2.1970     1.5260 c3         1 866      -0.118100
      2 C2          -4.1360     0.9460     1.5990 c3         1 866       0.102000
      3 N1          -3.5310     0.5770     0.3180 n          1 866      -0.384800
      4 C3          -2.3840     1.3570    -0.1280 c3         1 866       0.061000
      5 C4          -1.0020     0.6750    -0.1850 c3         1 866       0.097000
      6 O1          -0.9150    -0.3210    -1.1600 oh         1 866      -0.669000
      7 C5          -0.0050     1.7990    -0.5500 c3         1 866       0.100000
      8 N2           1.2970     1.3170    -0.9140 ns         1 866      -0.487900
      9 C6           2.3970     1.4680    -0.1450 c          1 866       0.674700
     10 O2           2.3930     2.1390     0.8860 o          1 866      -0.652100
     11 C7           3.6030     0.7960    -0.6080 cc         1 866      -0.364600
     12 C8           3.8220    -0.0980    -1.6820 cc         1 866       0.309900
     13 N3           5.0490    -0.5380    -1.7180 nd         1 866      -0.516800
     14 N4           5.6730     0.0650    -0.6730 na         1 866       0.168000
     15 C9           4.8410     0.8630     0.0330 cd         1 866       0.326000
     16 N5           5.2300     1.5830     1.1110 nv         1 866      -1.067000
     17 C10          7.0240    -0.2330    -0.3980 ca         1 866      -0.008200
     18 C11          7.4300    -1.5620    -0.3500 ca         1 866      -0.078000
     19 C12          8.7560    -1.8720    -0.0970 ca         1 866      -0.146500
     20 C13          9.6510    -0.8410     0.1200 ca         1 866       0.175000
     21 F1          10.9320    -1.1380     0.3770 f          1 866      -0.173000
     22 C14          9.2680     0.4850     0.0790 ca         1 866      -0.146500
     23 C15          7.9420     0.7890    -0.1940 ca         1 866      -0.078000
     24 C16         -0.6380     0.0250     1.1550 c3         1 866       0.286000
     25 F2          -1.4850    -0.9560     1.4840 f          1 866      -0.112333
     26 F3           0.5810    -0.5230     1.1370 f          1 866      -0.112333
     27 F4          -0.6560     0.9140     2.1610 f          1 866      -0.112333
     28 C17         -4.0670    -0.3170    -0.5180 c          1 866       0.634700
     29 O3          -3.5340    -0.6690    -1.5680 o          1 866      -0.600100
     30 C18         -5.4110    -0.8910    -0.1810 ca         1 866      -0.130600
     31 C19         -5.5450    -2.0470     0.5780 ca         1 866       0.148000
     32 CL1         -4.1320    -2.7660     1.2630 cl         1 866      -0.170500
     33 C20         -6.7820    -2.6260     0.8100 ca         1 866      -0.104500
     34 C21         -7.9110    -2.0420     0.2590 ca         1 866      -0.079000
     35 C22         -7.8110    -0.8980    -0.5180 ca         1 866      -0.104500
     36 C23         -6.5610    -0.3430    -0.7360 ca         1 866       0.148000
     37 CL2         -6.4230     1.0670    -1.7280 cl         1 866      -0.170500
     38 H1          -4.4250     3.0520     1.1560 hc         1 866       0.046033
     39 H1A         -5.8570     2.0590     0.8790 hc         1 866       0.046033
     40 H1B         -5.3520     2.4480     2.5230 hc         1 866       0.046033
     41 H2          -3.3260     1.0930     2.3120 h1         1 866       0.064200
     42 H2A         -4.7170     0.1070     1.9770 h1         1 866       0.064200
     43 H3          -2.5870     1.7430    -1.1310 h1         1 866       0.072200
     44 H3A         -2.3250     2.2310     0.5210 h1         1 866       0.072200
     45 HO1         -1.8150    -0.5180    -1.4900 ho         1 866       0.504000
     46 H5          -0.4320     2.3330    -1.4030 h1         1 866       0.069200
     47 H5A          0.0970     2.5240     0.2550 h1         1 866       0.069200
     48 HN2          1.3500     0.7540    -1.7470 hn         1 866       0.328500
     49 H8           3.1170    -0.4330    -2.4290 h4         1 866       0.039100
     50 HN5          4.4610     1.9580     1.6460 hn         1 866       0.489000
     51 HN5A         5.9810     1.2130     1.6750 hn         1 866       0.489000
     52 H11          6.7130    -2.3540    -0.5110 ha         1 866       0.140500
     53 H12          9.0830    -2.9020    -0.0560 ha         1 866       0.138500
     54 H14          9.9910     1.2730     0.2410 ha         1 866       0.138500
     55 H15          7.6360     1.8250    -0.2560 ha         1 866       0.140500
     56 H20         -6.8600    -3.5210     1.4110 ha         1 866       0.138500
     57 H21         -8.8820    -2.4850     0.4330 ha         1 866       0.127000
     58 H22         -8.6910    -0.4490    -0.9540 ha         1 866       0.138500
@<TRIPOS>BOND
     1     1     2 1   
     2     1    38 1   
     3     1    39 1   
     4     1    40 1   
     5     2     3 1   
     6     2    41 1   
     7     2    42 1   
     8     3     4 1   
     9     3    28 1   
    10     4     5 1   
    11     4    43 1   
    12     4    44 1   
    13     5     6 1   
    14     5     7 1   
    15     5    24 1   
    16     6    45 1   
    17     7     8 1   
    18     7    46 1   
    19     7    47 1   
    20     8     9 1   
    21     8    48 1   
    22     9    10 2   
    23     9    11 1   
    24    11    12 1   
    25    11    15 2   
    26    12    13 2   
    27    12    49 1   
    28    13    14 1   
    29    14    15 1   
    30    14    17 1   
    31    15    16 1   
    32    16    50 1   
    33    16    51 1   
    34    17    18 ar  
    35    17    23 ar  
    36    18    19 ar  
    37    18    52 1   
    38    19    20 ar  
    39    19    53 1   
    40    20    21 1   
    41    20    22 ar  
    42    22    23 ar  
    43    22    54 1   
    44    23    55 1   
    45    24    25 1   
    46    24    26 1   
    47    24    27 1   
    48    28    29 2   
    49    28    30 1   
    50    30    31 ar  
    51    30    36 ar  
    52    31    32 1   
    53    31    33 ar  
    54    33    34 ar  
    55    33    56 1   
    56    34    35 ar  
    57    34    57 1   
    58    35    36 ar  
    59    35    58 1   
    60    36    37 1   
@<TRIPOS>SUBSTRUCTURE
     1 866         1 TEMP              0 ****  ****    0 ROOT
