@<TRIPOS>MOLECULE
869
   57    59     1     0     0
SMALL
abcg2


@<TRIPOS>ATOM
      1 O30         46.1770     1.9710     7.9870 os         1 869      -0.348100
      2 C31         47.2560     1.7300     8.8920 c3         1 869       0.146900
      3 C24         45.2630     1.7280     5.8400 ca         1 869      -0.171000
      4 C25         45.2410     1.1360     4.5880 ca         1 869      -0.052500
      5 C26         46.1480     0.1270     4.2540 cp         1 869      -0.133000
      6 C27         47.0550    -0.2970     5.2220 ca         1 869      -0.052500
      7 C28         47.0880     0.2880     6.4840 ca         1 869      -0.171000
      8 C29         46.2000     1.3180     6.7910 ca         1 869       0.146100
      9 C1          45.1190    -1.3680     2.5340 ca         1 869      -0.048300
     10 C2          45.0900    -1.8880     1.2290 ca         1 869      -0.093600
     11 C3          46.0360    -1.5100     0.2840 ca         1 869      -0.095000
     12 C4          47.0260    -0.6010     0.6160 ca         1 869      -0.037000
     13 C5          47.0730    -0.0970     1.9110 ca         1 869      -0.229500
     14 C6          46.1350    -0.4590     2.8800 cp         1 869       0.059000
     15 C9          44.3580    -4.2510     0.8320 cc         1 869      -0.403600
     16 C15         43.4620    -5.3000     0.5640 cd         1 869       0.161100
     17 C18         45.5850    -4.9130     1.0790 cc         1 869       0.321900
     18 N16         44.1410    -6.4510     0.6470 na         1 869       0.094800
     19 N17         45.4630    -6.2190     0.9690 nd         1 869      -0.515800
     20 O19         42.1840    -5.2440     0.2130 oh         1 869      -0.516100
     21 C8          44.0140    -2.8560     0.8510 c          1 869       0.637300
     22 O10         42.8620    -2.4750     0.6150 o          1 869      -0.576100
     23 S11         48.5110     0.9240     2.2660 sy         1 869       1.073500
     24 O13         49.0760     1.3380     1.0040 o          1 869      -0.536500
     25 O12         49.3640     0.1770     3.1710 o          1 869      -0.536500
     26 C14         47.9580     2.4070     3.0950 c3         1 869      -0.332100
     27 C20         43.6110    -7.8380     0.4860 c3         1 869       0.122000
     28 C21         42.6580    -8.1030     1.6570 c3         1 869      -0.099100
     29 C22         42.8850    -7.9610    -0.8660 c3         1 869      -0.099100
     30 C23         44.7790    -8.8240     0.5250 c3         1 869      -0.099100
     31 H311        48.2170     1.8850     8.3980 h1         1 869       0.045033
     32 H312        47.1420     2.4510     9.6970 h1         1 869       0.045033
     33 H313        47.2100     0.7140     9.2950 h1         1 869       0.045033
     34 H24         44.5760     2.5260     6.0910 ha         1 869       0.129500
     35 H25         44.5230     1.4720     3.8560 ha         1 869       0.129500
     36 H27         47.7580    -1.0830     4.9870 ha         1 869       0.129500
     37 H28         47.8070    -0.0620     7.2090 ha         1 869       0.129500
     38 H3          46.0000    -1.9220    -0.7170 ha         1 869       0.129000
     39 H4          47.7650    -0.3030    -0.1130 ha         1 869       0.150000
     40 H71         44.4980    -1.7470     4.5560 hc         1 869       0.052367
     41 H72         43.2170    -1.1430     3.5130 hc         1 869       0.052367
     42 H73         43.7550    -2.8120     3.3620 hc         1 869       0.052367
     43 H18         46.5380    -4.4790     1.3400 h4         1 869       0.048100
     44 H19         41.7840    -4.4480     0.6000 ho         1 869       0.517000
     45 H141        48.1540     2.3110     4.1600 h1         1 869       0.106033
     46 H142        48.5430     3.2090     2.6480 h1         1 869       0.106033
     47 H143        46.9000     2.5600     2.9040 h1         1 869       0.106033
     48 H211        42.2740    -9.1230     1.5840 hc         1 869       0.051811
     49 H212        43.1810    -7.9980     2.6090 hc         1 869       0.051811
     50 H213        41.8110    -7.4160     1.6440 hc         1 869       0.051811
     51 H221        41.8400    -7.6640    -0.7910 hc         1 869       0.051811
     52 H222        43.3670    -7.3430    -1.6260 hc         1 869       0.051811
     53 H223        42.9250    -8.9970    -1.2010 hc         1 869       0.051811
     54 H231        45.4760    -8.6310    -0.2910 hc         1 869       0.051811
     55 H232        45.3190    -8.7710     1.4670 hc         1 869       0.051811
     56 H233        44.3720    -9.8270     0.4100 hc         1 869       0.051811
     57 C7          44.0940    -1.7940     3.5470 c3         1 869      -0.054800
@<TRIPOS>BOND
     1     1     2 1   
     2     1     8 1   
     3     2    31 1   
     4     2    32 1   
     5     2    33 1   
     6     3     4 ar  
     7     3     8 ar  
     8     3    34 1   
     9     4     5 ar  
    10     4    35 1   
    11     5     6 ar  
    12     5    14 1   
    13     6     7 ar  
    14     6    36 1   
    15     7     8 ar  
    16     7    37 1   
    17     9    10 ar  
    18     9    14 ar  
    19     9    57 1   
    20    10    11 ar  
    21    10    21 1   
    22    11    12 ar  
    23    11    38 1   
    24    12    13 ar  
    25    12    39 1   
    26    13    14 ar  
    27    13    23 1   
    28    15    16 2   
    29    15    17 1   
    30    15    21 1   
    31    16    18 1   
    32    16    20 1   
    33    17    19 2   
    34    17    43 1   
    35    18    19 1   
    36    18    27 1   
    37    20    44 1   
    38    21    22 2   
    39    23    24 2   
    40    23    25 2   
    41    23    26 1   
    42    26    45 1   
    43    26    46 1   
    44    26    47 1   
    45    27    28 1   
    46    27    29 1   
    47    27    30 1   
    48    28    48 1   
    49    28    49 1   
    50    28    50 1   
    51    29    51 1   
    52    29    52 1   
    53    29    53 1   
    54    30    54 1   
    55    30    55 1   
    56    30    56 1   
    57    40    57 1   
    58    41    57 1   
    59    42    57 1   
@<TRIPOS>SUBSTRUCTURE
     1 869         1 TEMP              0 ****  ****    0 ROOT
