@<TRIPOS>MOLECULE
869
   57    59     1     0     0
SMALL
No Charge or Current Charge


@<TRIPOS>ATOM
      1 O30         46.4250     2.8030     7.9230 os         1 869      -0.348100
      2 C31         47.3120     2.6000     9.0370 c3         1 869       0.146900
      3 C24         45.5180     2.2520     5.7880 ca         1 869      -0.171000
      4 C25         45.4680     1.4390     4.6430 ca         1 869      -0.052500
      5 C26         46.3420     0.3350     4.5010 cp         1 869      -0.133000
      6 C27         47.2280     0.0400     5.5650 ca         1 869      -0.052500
      7 C28         47.2780     0.8520     6.7110 ca         1 869      -0.171000
      8 C29         46.4220     1.9690     6.8230 ca         1 869       0.146100
      9 C1          45.1900    -1.5350     3.2750 ca         1 869      -0.048300
     10 C2          45.0250    -2.3790     2.1410 ca         1 869      -0.093600
     11 C3          45.9090    -2.2560     1.0500 ca         1 869      -0.095000
     12 C4          46.9490    -1.3230     1.0690 ca         1 869      -0.037000
     13 C5          47.1190    -0.4820     2.1830 ca         1 869      -0.229500
     14 C6          46.2400    -0.5620     3.3090 cp         1 869       0.059000
     15 C9          44.2020    -4.7090     1.5150 cc         1 869      -0.403600
     16 C15         43.3370    -5.5590     0.9220 cd         1 869       0.161100
     17 C18         45.4630    -5.3080     1.4200 cc         1 869       0.321900
     18 N16         44.0990    -6.6690     0.5070 na         1 869       0.094800
     19 N17         45.4500    -6.4890     0.8310 nd         1 869      -0.515800
     20 O19         42.0100    -5.3940     0.7580 oh         1 869      -0.516100
     21 C8          43.8880    -3.3750     2.0460 c          1 869       0.637300
     22 O10         42.7210    -3.0510     2.2380 o          1 869      -0.576100
     23 S11         48.4630     0.7510     2.1760 sy         1 869       1.073500
     24 O13         49.2160     0.6030     0.9230 o          1 869      -0.536500
     25 O12         49.1660     0.7310     3.4640 o          1 869      -0.536500
     26 C14         47.6320     2.3370     2.0710 c3         1 869      -0.332100
     27 C20         43.6120    -7.9040    -0.1960 c3         1 869       0.122000
     28 C21         42.5610    -8.6340     0.6820 c3         1 869      -0.099100
     29 C22         42.9770    -7.5210    -1.5600 c3         1 869      -0.099100
     30 C23         44.7720    -8.9060    -0.4780 c3         1 869      -0.099100
     31 H311        48.3600     2.6520     8.7170 h1         1 869       0.045033
     32 H312        47.1510     3.3740     9.7980 h1         1 869       0.045033
     33 H313        47.1340     1.6230     9.5050 h1         1 869       0.045033
     34 H24         44.8480     3.1030     5.8760 ha         1 869       0.129500
     35 H25         44.7520     1.6630     3.8560 ha         1 869       0.129500
     36 H27         47.8830    -0.8260     5.4930 ha         1 869       0.129500
     37 H28         47.9810     0.5970     7.4990 ha         1 869       0.129500
     38 H3          45.7760    -2.8720     0.1620 ha         1 869       0.129000
     39 H4          47.6100    -1.2510     0.2070 ha         1 869       0.150000
     40 H71         44.6920    -1.3750     5.4180 hc         1 869       0.052367
     41 H72         43.3280    -1.1040     4.3270 hc         1 869       0.052367
     42 H73         43.9470    -2.7370     4.6270 hc         1 869       0.052367
     43 H18         46.4090    -4.9150     1.7680 h4         1 869       0.048100
     44 H19         41.7970    -4.5420     1.2060 ho         1 869       0.517000
     45 H141        47.1150     2.5290     3.0130 h1         1 869       0.106033
     46 H142        48.3940     3.1030     1.8970 h1         1 869       0.106033
     47 H143        46.9260     2.2980     1.2350 h1         1 869       0.106033
     48 H211        42.2310    -9.5660     0.2060 hc         1 869       0.051811
     49 H212        42.9830    -8.8860     1.6630 hc         1 869       0.051811
     50 H213        41.6720    -8.0160     0.8460 hc         1 869       0.051811
     51 H221        42.0950    -6.8840    -1.4300 hc         1 869       0.051811
     52 H222        43.6970    -6.9780    -2.1840 hc         1 869       0.051811
     53 H223        42.6590    -8.4150    -2.1090 hc         1 869       0.051811
     54 H231        45.5390    -8.4520    -1.1170 hc         1 869       0.051811
     55 H232        45.2490    -9.2290     0.4550 hc         1 869       0.051811
     56 H233        44.4010    -9.8020    -0.9890 hc         1 869       0.051811
     57 C7          44.2410    -1.6930     4.4720 c3         1 869      -0.054800
@<TRIPOS>BOND
     1     1     2 1   
     2     1     8 1   
     3     2    31 1   
     4     2    32 1   
     5     2    33 1   
     6     3     4 ar  
     7     3     8 ar  
     8     3    34 1   
     9     4     5 ar  
    10     4    35 1   
    11     5     6 ar  
    12     5    14 1   
    13     6     7 ar  
    14     6    36 1   
    15     7     8 ar  
    16     7    37 1   
    17     9    10 ar  
    18     9    14 ar  
    19     9    57 1   
    20    10    11 ar  
    21    10    21 1   
    22    11    12 ar  
    23    11    38 1   
    24    12    13 ar  
    25    12    39 1   
    26    13    14 ar  
    27    13    23 1   
    28    15    16 2   
    29    15    17 1   
    30    15    21 1   
    31    16    18 1   
    32    16    20 1   
    33    17    19 2   
    34    17    43 1   
    35    18    19 1   
    36    18    27 1   
    37    20    44 1   
    38    21    22 2   
    39    23    24 2   
    40    23    25 2   
    41    23    26 1   
    42    26    45 1   
    43    26    46 1   
    44    26    47 1   
    45    27    28 1   
    46    27    29 1   
    47    27    30 1   
    48    28    48 1   
    49    28    49 1   
    50    28    50 1   
    51    29    51 1   
    52    29    52 1   
    53    29    53 1   
    54    30    54 1   
    55    30    55 1   
    56    30    56 1   
    57    40    57 1   
    58    41    57 1   
    59    42    57 1   
@<TRIPOS>SUBSTRUCTURE
     1 869         1 TEMP              0 ****  ****    0 ROOT
