@<TRIPOS>MOLECULE
86A
   60    61     1     0     0
SMALL
No Charge or Current Charge


@<TRIPOS>ATOM
      1 C37          7.6540     0.1720     0.3900 ca         1 86A      -0.108000
      2 C38          8.9060     0.4920     0.9430 ca         1 86A      -0.117500
      3 C39          9.3660     1.8190     0.9230 ca         1 86A      -0.131000
      4 C40          8.5720     2.8270     0.3510 ca         1 86A      -0.117500
      5 C41          7.3200     2.5080    -0.2020 ca         1 86A      -0.108000
      6 C36          6.8540     1.1780    -0.1870 ca         1 86A      -0.058300
      7 C33          5.4960     0.8340    -0.7830 c3         1 86A      -0.025100
      8 C24          4.3560     0.9780     0.2500 c3         1 86A      -0.164400
      9 C30          3.0020     0.6110    -0.3630 c          1 86A       0.610100
     10 O31          2.4110     1.3530    -1.1370 o          1 86A      -0.632100
     11 N29          2.4930    -0.6060     0.0480 ns         1 86A      -0.461900
     12 C25          1.1960    -1.2060    -0.4000 c3         1 86A      -0.220300
     13 C26          1.4330    -2.4490    -1.3210 c3         1 86A      -0.038700
     14 C28          0.1310    -2.9580    -1.9860 c3         1 86A      -0.085100
     15 C27          2.5080    -2.1900    -2.4100 c3         1 86A      -0.085100
     16 P24         -0.0200    -1.4490     1.0180 p5         1 86A       1.393400
     17 O34          0.1740    -0.3830     2.0510 o          1 86A      -0.818000
     18 O35          0.1030    -2.8210     1.6000 o          1 86A      -0.818000
     19 O23         -1.4110    -1.2280     0.2230 os         1 86A      -0.598400
     20 C1          -2.6700    -1.2700     0.9500 c3         1 86A       0.115600
     21 C2          -3.1630    -2.7170     1.3240 c          1 86A       0.726000
     22 O14         -2.8820    -3.6650     0.5990 o          1 86A      -0.724500
     23 O13         -3.8740    -2.8370     2.3160 o          1 86A      -0.724500
     24 C3          -3.7290    -0.5650     0.1040 ca         1 86A       0.027700
     25 C8          -4.5100     0.4710     0.6570 ca         1 86A      -0.143000
     26 C4          -3.9390    -0.9440    -1.2370 ca         1 86A      -0.091000
     27 C5          -4.9190    -0.3000    -2.0110 ca         1 86A      -0.118000
     28 C6          -5.6910     0.7290    -1.4490 ca         1 86A      -0.205000
     29 C7          -5.4830     1.1240    -0.1160 ca         1 86A       0.258000
     30 N9          -6.2490     2.1370     0.4570 nu         1 86A      -0.982200
     31 C10         -6.4370     3.3800     0.0840 c2         1 86A       0.848100
     32 N12         -6.0960     3.7940    -1.0270 n2         1 86A      -0.966100
     33 N11         -7.5510     3.6780     0.6450 nv         1 86A      -1.048200
     34 H37          7.3040    -0.8580     0.4110 ha         1 86A       0.116000
     35 H38          9.5190    -0.2900     1.3870 ha         1 86A       0.099500
     36 H39         10.3350     2.0660     1.3520 ha         1 86A       0.096000
     37 H40          8.9260     3.8550     0.3370 ha         1 86A       0.099500
     38 H41          6.7100     3.2950    -0.6410 ha         1 86A       0.116000
     39 H331         5.2880     1.4810    -1.6440 hc         1 86A       0.057700
     40 H332         5.5030    -0.1930    -1.1700 hc         1 86A       0.057700
     41 H241         4.5770     0.3220     1.1010 hc         1 86A       0.056200
     42 H242         4.3220     2.0220     0.5850 hc         1 86A       0.056200
     43 HN29         3.0570    -1.1210     0.7150 hn         1 86A       0.296500
     44 H25          0.6710    -0.4520    -0.9980 h1         1 86A       0.079700
     45 H26          1.8130    -3.2620    -0.6900 hc         1 86A       0.052700
     46 H281        -0.3510    -2.1600    -2.5640 hc         1 86A       0.025367
     47 H282         0.3430    -3.7910    -2.6670 hc         1 86A       0.025367
     48 H283        -0.5810    -3.3260    -1.2400 hc         1 86A       0.025367
     49 H271         3.4900    -1.9910    -1.9650 hc         1 86A       0.025367
     50 H272         2.6200    -3.0650    -3.0610 hc         1 86A       0.025367
     51 H273         2.2310    -1.3320    -3.0340 hc         1 86A       0.025367
     52 H1          -2.5650    -0.7230     1.8960 h1         1 86A       0.043700
     53 H8          -4.3530     0.7690     1.6900 ha         1 86A       0.129000
     54 H4          -3.3410    -1.7400    -1.6760 ha         1 86A       0.140000
     55 H5          -5.0810    -0.6020    -3.0440 ha         1 86A       0.081000
     56 H6          -6.4560     1.2120    -2.0500 ha         1 86A       0.078000
     57 HN9         -6.2600     2.1040     1.4690 hn         1 86A       0.485000
     58 HN12        -5.4400     3.0830    -1.3660 hn         1 86A       0.369400
     59 H111        -8.0650     2.8170     0.7240 hn         1 86A       0.476000
     60 H112        -8.0250     4.3570     0.0700 hn         1 86A       0.476000
@<TRIPOS>BOND
     1     1     2 ar  
     2     1     6 ar  
     3     1    34 1   
     4     2     3 ar  
     5     2    35 1   
     6     3     4 ar  
     7     3    36 1   
     8     4     5 ar  
     9     4    37 1   
    10     5     6 ar  
    11     5    38 1   
    12     6     7 1   
    13     7     8 1   
    14     7    39 1   
    15     7    40 1   
    16     8     9 1   
    17     8    41 1   
    18     8    42 1   
    19     9    10 2   
    20     9    11 1   
    21    11    12 1   
    22    11    43 1   
    23    12    13 1   
    24    12    16 1   
    25    12    44 1   
    26    13    14 1   
    27    13    15 1   
    28    13    45 1   
    29    14    46 1   
    30    14    47 1   
    31    14    48 1   
    32    15    49 1   
    33    15    50 1   
    34    15    51 1   
    35    16    17 1   
    36    16    18 1   
    37    16    19 1   
    38    19    20 1   
    39    20    21 1   
    40    20    24 1   
    41    20    52 1   
    42    21    22 1   
    43    21    23 1   
    44    24    25 ar  
    45    24    26 ar  
    46    25    29 ar  
    47    25    53 1   
    48    26    27 ar  
    49    26    54 1   
    50    27    28 ar  
    51    27    55 1   
    52    28    29 ar  
    53    28    56 1   
    54    29    30 1   
    55    30    31 1   
    56    30    57 1   
    57    31    32 2   
    58    31    33 1   
    59    32    58 1   
    60    33    59 1   
    61    33    60 1   
@<TRIPOS>SUBSTRUCTURE
     1 86A         1 TEMP              0 ****  ****    0 ROOT
