@<TRIPOS>MOLECULE
86A
   60    61     1     0     0
SMALL
abcg2


@<TRIPOS>ATOM
      1 C37          8.0270     0.3350    -0.3730 ca         1 86A      -0.108000
      2 C38          9.2180     0.5070     0.3210 ca         1 86A      -0.117500
      3 C39          9.3710     1.5810     1.1880 ca         1 86A      -0.131000
      4 C40          8.3250     2.4800     1.3530 ca         1 86A      -0.117500
      5 C41          7.1380     2.3040     0.6550 ca         1 86A      -0.108000
      6 C36          6.9720     1.2300    -0.2170 ca         1 86A      -0.058300
      7 C33          5.6670     1.0200    -0.9350 c3         1 86A      -0.025100
      8 C24          4.6850     0.2340    -0.0710 c3         1 86A      -0.164400
      9 C30          3.3420     0.0170    -0.7390 c          1 86A       0.610100
     10 O31          2.9020     0.7900    -1.5800 o          1 86A      -0.632100
     11 N29          2.6960    -1.0860    -0.3310 ns         1 86A      -0.461900
     12 C25          1.3130    -1.3950    -0.6400 c3         1 86A      -0.220300
     13 C26          1.1610    -2.9000    -0.9060 c3         1 86A      -0.038700
     14 C28         -0.2680    -3.2790    -1.2790 c3         1 86A      -0.085100
     15 C27          2.1140    -3.3570    -2.0090 c3         1 86A      -0.085100
     16 P24          0.3150    -0.7110     0.7710 p5         1 86A       1.393400
     17 O34          0.8110     0.6790     1.0780 o          1 86A      -0.818000
     18 O35          0.2470    -1.7130     1.8930 o          1 86A      -0.818000
     19 O23         -1.1460    -0.5830     0.0140 os         1 86A      -0.598400
     20 C1          -2.2620    -0.2320     0.7960 c3         1 86A       0.115600
     21 C2          -2.9090    -1.4350     1.5400 c          1 86A       0.726000
     22 O14         -2.9200    -2.5280     0.9550 o          1 86A      -0.724500
     23 O13         -3.4230    -1.1560     2.6410 o          1 86A      -0.724500
     24 C3          -3.3170     0.3580    -0.1020 ca         1 86A       0.027700
     25 C8          -4.3070     1.1630     0.4530 ca         1 86A      -0.143000
     26 C4          -3.3660     0.0650    -1.4620 ca         1 86A      -0.091000
     27 C5          -4.3710     0.6100    -2.2480 ca         1 86A      -0.118000
     28 C6          -5.3350     1.4440    -1.7020 ca         1 86A      -0.205000
     29 C7          -5.3200     1.7080    -0.3310 ca         1 86A       0.258000
     30 N9          -6.2570     2.5620     0.2610 nu         1 86A      -0.982200
     31 C10         -7.6310     2.5530     0.1080 c2         1 86A       0.848100
     32 N12         -8.4030     3.4570     0.5890 n2         1 86A      -0.966100
     33 N11         -8.1690     1.4770    -0.5360 nv         1 86A      -1.048200
     34 H37          7.9200    -0.5040    -1.0510 ha         1 86A       0.116000
     35 H38         10.0290    -0.1970     0.1810 ha         1 86A       0.099500
     36 H39         10.2990     1.7170     1.7290 ha         1 86A       0.096000
     37 H40          8.4360     3.3240     2.0220 ha         1 86A       0.099500
     38 H41          6.3290     3.0130     0.7900 ha         1 86A       0.116000
     39 H331         5.2280     1.9820    -1.2020 hc         1 86A       0.057700
     40 H332         5.8430     0.4830    -1.8700 hc         1 86A       0.057700
     41 H241         5.1250    -0.7230     0.2230 hc         1 86A       0.056200
     42 H242         4.4980     0.7760     0.8620 hc         1 86A       0.056200
     43 HN29         3.1270    -1.6340     0.3980 hn         1 86A       0.296500
     44 H25          1.0500    -0.8490    -1.5490 h1         1 86A       0.079700
     45 H26          1.4240    -3.4270     0.0190 hc         1 86A       0.052700
     46 H281        -0.5910    -2.7350    -2.1700 hc         1 86A       0.025367
     47 H282        -0.3190    -4.3450    -1.5120 hc         1 86A       0.025367
     48 H283        -0.9870    -3.0670    -0.4910 hc         1 86A       0.025367
     49 H271         3.1560    -3.1310    -1.7850 hc         1 86A       0.025367
     50 H272         2.0330    -4.4360    -2.1580 hc         1 86A       0.025367
     51 H273         1.8650    -2.8760    -2.9590 hc         1 86A       0.025367
     52 H1          -1.9920     0.5240     1.5440 h1         1 86A       0.043700
     53 H8          -4.2870     1.3760     1.5160 ha         1 86A       0.129000
     54 H4          -2.6120    -0.5680    -1.9100 ha         1 86A       0.140000
     55 H5          -4.3940     0.4010    -3.3100 ha         1 86A       0.081000
     56 H6          -6.0700     1.9110    -2.3450 ha         1 86A       0.078000
     57 HN9         -5.9270     3.0960     1.0500 hn         1 86A       0.485000
     58 HN12        -7.8650     4.1890     1.0380 hn         1 86A       0.369400
     59 H111        -7.5860     0.8620    -1.0750 hn         1 86A       0.476000
     60 H112        -9.0920     1.6120    -0.9100 hn         1 86A       0.476000
@<TRIPOS>BOND
     1     1     2 ar  
     2     1     6 ar  
     3     1    34 1   
     4     2     3 ar  
     5     2    35 1   
     6     3     4 ar  
     7     3    36 1   
     8     4     5 ar  
     9     4    37 1   
    10     5     6 ar  
    11     5    38 1   
    12     6     7 1   
    13     7     8 1   
    14     7    39 1   
    15     7    40 1   
    16     8     9 1   
    17     8    41 1   
    18     8    42 1   
    19     9    10 2   
    20     9    11 1   
    21    11    12 1   
    22    11    43 1   
    23    12    13 1   
    24    12    16 1   
    25    12    44 1   
    26    13    14 1   
    27    13    15 1   
    28    13    45 1   
    29    14    46 1   
    30    14    47 1   
    31    14    48 1   
    32    15    49 1   
    33    15    50 1   
    34    15    51 1   
    35    16    17 1   
    36    16    18 1   
    37    16    19 1   
    38    19    20 1   
    39    20    21 1   
    40    20    24 1   
    41    20    52 1   
    42    21    22 1   
    43    21    23 1   
    44    24    25 ar  
    45    24    26 ar  
    46    25    29 ar  
    47    25    53 1   
    48    26    27 ar  
    49    26    54 1   
    50    27    28 ar  
    51    27    55 1   
    52    28    29 ar  
    53    28    56 1   
    54    29    30 1   
    55    30    31 1   
    56    30    57 1   
    57    31    32 2   
    58    31    33 1   
    59    32    58 1   
    60    33    59 1   
    61    33    60 1   
@<TRIPOS>SUBSTRUCTURE
     1 86A         1 TEMP              0 ****  ****    0 ROOT
