@<TRIPOS>MOLECULE
86B
   39    39     1     0     0
SMALL
No Charge or Current Charge


@<TRIPOS>ATOM
      1 C01         -3.5330     0.0070     0.0690 ca         1 86B      -0.369500
      2 C02         -2.6190     1.0510    -0.1800 ca         1 86B       0.024500
      3 C03         -1.2370     0.8110    -0.0950 ca         1 86B      -0.199500
      4 C04         -0.7610    -0.4740     0.2420 ca         1 86B       0.203100
      5 C05         -1.6750    -1.5080     0.4900 ca         1 86B      -0.199500
      6 C06         -3.0580    -1.2760     0.4060 ca         1 86B       0.024500
      7 S07         -5.2910     0.3190    -0.0400 sy         1 86B       1.147600
      8 O08         -6.0300    -0.7570     0.6160 o          1 86B      -0.533500
      9 O09         -5.5790     1.7360     0.1760 o          1 86B      -0.533500
     10 N10         -5.5490     0.0620    -1.6310 n8         1 86B      -0.994100
     11 O11          0.5840    -0.7660     0.3410 os         1 86B      -0.322100
     12 C12          1.6050     0.2240     0.1070 c3         1 86B       0.124600
     13 C13          2.9950    -0.4330     0.3050 c3         1 86B       0.168300
     14 C14          4.1560     0.5920     0.2260 c3         1 86B       0.131800
     15 N15          5.4520    -0.1100     0.0050 n7         1 86B      -0.858400
     16 O16          3.2580    -1.4260    -0.6980 oh         1 86B      -0.623000
     17 C17          6.6010     0.7320    -0.3750 c3         1 86B       0.173500
     18 C18          7.0490     1.6070     0.8150 c3         1 86B      -0.108100
     19 C19          7.7330    -0.1870    -0.8690 c3         1 86B      -0.108100
     20 H1          -2.9730     2.0480    -0.4420 ha         1 86B       0.135500
     21 H2          -0.5550     1.6320    -0.2920 ha         1 86B       0.129500
     22 H3          -1.3090    -2.4970     0.7490 ha         1 86B       0.129500
     23 H4          -3.7490    -2.0950     0.6050 ha         1 86B       0.135500
     24 H5          -6.2730    -0.6520    -1.5940 hn         1 86B       0.472500
     25 H6          -4.7120    -0.4520    -1.8950 hn         1 86B       0.472500
     26 H7           1.5320     0.6270    -0.9120 h1         1 86B       0.041700
     27 H8           1.4990     1.0550     0.8170 h1         1 86B       0.041700
     28 H9           3.0210    -0.8920     1.3030 h1         1 86B       0.086700
     29 H10          3.9580     1.2780    -0.6100 h1         1 86B       0.032200
     30 H11          4.1780     1.1900     1.1470 h1         1 86B       0.032200
     31 H12          5.7040    -0.6250     0.8600 hn         1 86B       0.414000
     32 H14          4.2280    -1.3010    -0.8510 ho         1 86B       0.440000
     33 H15          6.3230     1.3940    -1.2080 h1         1 86B       0.054700
     34 H16          7.9350     2.1930     0.5430 hc         1 86B       0.038867
     35 H17          6.2620     2.3120     1.1060 hc         1 86B       0.038867
     36 H18          7.3020     0.9890     1.6850 hc         1 86B       0.038867
     37 H19          7.3980    -0.7880    -1.7230 hc         1 86B       0.038867
     38 H20          8.5960     0.4070    -1.1910 hc         1 86B       0.038867
     39 H21          8.0620    -0.8690    -0.0750 hc         1 86B       0.038867
@<TRIPOS>BOND
     1     1     2 ar  
     2     1     6 ar  
     3     1     7 1   
     4     2     3 ar  
     5     2    20 1   
     6     3     4 ar  
     7     3    21 1   
     8     4     5 ar  
     9     4    11 1   
    10     5     6 ar  
    11     5    22 1   
    12     6    23 1   
    13     7     8 2   
    14     7     9 2   
    15     7    10 1   
    16    10    24 1   
    17    10    25 1   
    18    11    12 1   
    19    12    13 1   
    20    12    26 1   
    21    12    27 1   
    22    13    14 1   
    23    13    16 1   
    24    13    28 1   
    25    14    15 1   
    26    14    29 1   
    27    14    30 1   
    28    15    17 1   
    29    15    31 1   
    30    16    32 1   
    31    17    18 1   
    32    17    19 1   
    33    17    33 1   
    34    18    34 1   
    35    18    35 1   
    36    18    36 1   
    37    19    37 1   
    38    19    38 1   
    39    19    39 1   
@<TRIPOS>SUBSTRUCTURE
     1 86B         1 TEMP              0 ****  ****    0 ROOT
