@<TRIPOS>MOLECULE
86B
   39    39     1     0     0
SMALL
abcg2


@<TRIPOS>ATOM
      1 C01         -3.3370     0.0290     0.2040 ca         1 86B      -0.369500
      2 C02         -2.4240     1.0390    -0.0590 ca         1 86B       0.024500
      3 C03         -1.0690     0.7540    -0.1130 ca         1 86B      -0.199500
      4 C04         -0.6240    -0.5510     0.0990 ca         1 86B       0.203100
      5 C05         -1.5540    -1.5630     0.3640 ca         1 86B      -0.199500
      6 C06         -2.9000    -1.2760     0.4190 ca         1 86B       0.024500
      7 S07         -5.0650     0.3890     0.2400 sy         1 86B       1.147600
      8 O08         -5.7050    -0.5720     1.1240 o          1 86B      -0.533500
      9 O09         -5.2240     1.8140     0.4760 o          1 86B      -0.533500
     10 N10         -5.6760     0.1030    -1.2620 n8         1 86B      -0.994100
     11 O11          0.6590    -0.9240     0.0730 os         1 86B      -0.322100
     12 C12          1.6650     0.0540    -0.1390 c3         1 86B       0.124600
     13 C13          3.0140    -0.6440    -0.0840 c3         1 86B       0.168300
     14 C14          4.1280     0.3970    -0.1470 c3         1 86B       0.131800
     15 N15          5.4270    -0.2220    -0.0070 n7         1 86B      -0.858400
     16 O16          3.1260    -1.6390    -1.0710 oh         1 86B      -0.623000
     17 C17          6.5610     0.6710    -0.2090 c3         1 86B       0.173500
     18 C18          6.6380     1.8260     0.7900 c3         1 86B      -0.108100
     19 C19          7.8430    -0.1500    -0.1830 c3         1 86B      -0.108100
     20 H1          -2.7510     2.0570    -0.2180 ha         1 86B       0.135500
     21 H2          -0.3800     1.5630    -0.3110 ha         1 86B       0.129500
     22 H3          -1.2060    -2.5740     0.5370 ha         1 86B       0.129500
     23 H4          -3.6010    -2.0710     0.6360 ha         1 86B       0.135500
     24 H5          -5.6240    -0.8690    -1.5450 hn         1 86B       0.472500
     25 H6          -5.2910     0.7100    -1.9780 hn         1 86B       0.472500
     26 H7           1.5310     0.5380    -1.1150 h1         1 86B       0.041700
     27 H8           1.6090     0.8300     0.6310 h1         1 86B       0.041700
     28 H9           3.0840    -1.1680     0.8760 h1         1 86B       0.086700
     29 H10          4.0930     0.9090    -1.1160 h1         1 86B       0.032200
     30 H11          3.9190     1.1670     0.6110 h1         1 86B       0.032200
     31 H12          5.4980    -0.6410     0.9150 hn         1 86B       0.414000
     32 H14          3.2080    -1.2100    -1.9300 ho         1 86B       0.440000
     33 H15          6.4490     1.0980    -1.2130 h1         1 86B       0.054700
     34 H16          7.4950     2.4680     0.5830 hc         1 86B       0.038867
     35 H17          5.7470     2.4540     0.7600 hc         1 86B       0.038867
     36 H18          6.7460     1.4460     1.8090 hc         1 86B       0.038867
     37 H19          7.8150    -0.9450    -0.9290 hc         1 86B       0.038867
     38 H20          8.7130     0.4750    -0.3830 hc         1 86B       0.038867
     39 H21          7.9880    -0.6130     0.7970 hc         1 86B       0.038867
@<TRIPOS>BOND
     1     1     2 ar  
     2     1     6 ar  
     3     1     7 1   
     4     2     3 ar  
     5     2    20 1   
     6     3     4 ar  
     7     3    21 1   
     8     4     5 ar  
     9     4    11 1   
    10     5     6 ar  
    11     5    22 1   
    12     6    23 1   
    13     7     8 2   
    14     7     9 2   
    15     7    10 1   
    16    10    24 1   
    17    10    25 1   
    18    11    12 1   
    19    12    13 1   
    20    12    26 1   
    21    12    27 1   
    22    13    14 1   
    23    13    16 1   
    24    13    28 1   
    25    14    15 1   
    26    14    29 1   
    27    14    30 1   
    28    15    17 1   
    29    15    31 1   
    30    16    32 1   
    31    17    18 1   
    32    17    19 1   
    33    17    33 1   
    34    18    34 1   
    35    18    35 1   
    36    18    36 1   
    37    19    37 1   
    38    19    38 1   
    39    19    39 1   
@<TRIPOS>SUBSTRUCTURE
     1 86B         1 TEMP              0 ****  ****    0 ROOT
