@<TRIPOS>MOLECULE
86C
   48    52     1     0     0
SMALL
bcc


@<TRIPOS>ATOM
      1 C21         -3.4970    24.3660   -31.6940 c3         1 86C      -0.150400
      2 C12         -7.2500    23.0020   -36.6060 ca         1 86C      -0.154000
      3 C13         -6.3690    23.4480   -35.6470 ca         1 86C       0.130900
      4 C14         -2.6060    31.0170   -32.5900 cc         1 86C      -0.102000
      5 C15         -1.5090    31.4400   -31.8960 cd         1 86C      -0.172700
      6 C16         -1.8030    29.0030   -31.7560 cd         1 86C      -0.147100
      7 C17         -0.9270    32.7800   -31.6830 c          1 86C       0.716700
      8 C18         -1.0980    35.1670   -32.1780 cy         1 86C       0.046700
      9 C19         -2.1520    36.2790   -32.1390 cy         1 86C       0.097400
     10 C1          -2.7720    29.6090   -32.5090 cc         1 86C      -0.002200
     11 N1          -3.8220    28.9480   -33.1470 na         1 86C       0.092100
     12 S1          -0.6860    30.1350   -31.1450 ss         1 86C       0.070200
     13 C2          -4.1790    27.6310   -33.0870 ca         1 86C       0.434800
     14 C3          -5.2860    27.4780   -33.9240 ca         1 86C      -0.305200
     15 C4          -5.5180    28.7800   -34.4390 cc         1 86C       0.369800
     16 C5          -4.1310    25.4660   -32.4850 ca         1 86C       0.442600
     17 C6          -5.2610    25.1870   -33.3100 ca         1 86C       0.014300
     18 C7          -5.8510    26.2080   -34.0300 ca         1 86C      -0.074000
     19 C10         -8.8000    22.4330   -34.8560 ca         1 86C      -0.118000
     20 C11         -8.4730    22.4840   -36.2000 ca         1 86C      -0.110000
     21 C20         -0.6330    35.8700   -33.4620 cy         1 86C       0.097400
     22 C8          -6.6570    23.4350   -34.2820 ca         1 86C       0.102600
     23 C9          -7.9030    22.9200   -33.9170 ca         1 86C       0.002400
     24 N2          -4.6430    29.6270   -33.9670 nd         1 86C      -0.507100
     25 N3          -3.6080    26.6720   -32.3740 nb         1 86C      -0.664000
     26 N4          -5.7150    23.8690   -33.3580 nu         1 86C      -0.631000
     27 N5          -1.5610    33.8160   -32.2610 ns         1 86C      -0.547900
     28 O1           0.0830    32.8930   -31.0010 o          1 86C      -0.603100
     29 O2          -1.4940    36.9830   -33.1980 oq         1 86C      -0.397600
     30 CL1         -8.3320    22.8850   -32.2420 cl         1 86C      -0.100400
     31 H16         -2.6180    24.7370   -31.1740 hc         1 86C       0.056367
     32 H17         -4.1820    23.9600   -30.9440 hc         1 86C       0.056367
     33 H15         -3.2000    23.5350   -32.3360 hc         1 86C       0.056367
     34 H6          -6.9750    23.0410   -37.6520 ha         1 86C       0.157000
     35 H7          -3.2770    31.6590   -33.1410 ha         1 86C       0.168000
     36 H8          -1.7010    27.9530   -31.5350 h4         1 86C       0.200000
     37 H10         -0.3740    35.2420   -31.3710 h1         1 86C       0.104700
     38 H11         -2.2180    36.8610   -31.2170 h1         1 86C       0.057450
     39 H12         -3.1570    35.9410   -32.4190 h1         1 86C       0.057450
     40 H1          -6.2830    29.1090   -35.1250 h4         1 86C       0.054800
     41 H2          -6.7270    26.0400   -34.6440 ha         1 86C       0.150000
     42 H4          -9.7520    22.0310   -34.5360 ha         1 86C       0.154000
     43 H5          -9.1720    22.1170   -36.9380 ha         1 86C       0.144000
     44 H13         -0.9070    35.3330   -34.3770 h1         1 86C       0.057450
     45 H14          0.4210    36.1510   -33.5150 h1         1 86C       0.057450
     46 H3          -5.7320    23.3840   -32.4730 hn         1 86C       0.437800
     47 H9          -2.3560    33.6390   -32.8560 hn         1 86C       0.320500
     48 F1          -5.1760    23.9220   -36.0230 f          1 86C      -0.125900
@<TRIPOS>BOND
     1     1    16 1   
     2     1    31 1   
     3     1    32 1   
     4     1    33 1   
     5     2     3 ar  
     6     2    20 ar  
     7     2    34 1   
     8     3    22 ar  
     9     3    48 1   
    10     4     5 2   
    11     4    10 1   
    12     4    35 1   
    13     5     7 1   
    14     5    12 1   
    15     6    10 2   
    16     6    12 1   
    17     6    36 1   
    18     7    27 1   
    19     7    28 2   
    20     8     9 1   
    21     8    21 1   
    22     8    27 1   
    23     8    37 1   
    24     9    29 1   
    25     9    38 1   
    26     9    39 1   
    27    10    11 1   
    28    11    13 1   
    29    11    24 1   
    30    13    14 ar  
    31    13    25 ar  
    32    14    15 1   
    33    14    18 ar  
    34    15    24 2   
    35    15    40 1   
    36    16    17 ar  
    37    16    25 ar  
    38    17    18 ar  
    39    17    26 1   
    40    18    41 1   
    41    19    20 ar  
    42    19    23 ar  
    43    19    42 1   
    44    20    43 1   
    45    21    29 1   
    46    21    44 1   
    47    21    45 1   
    48    22    23 ar  
    49    22    26 1   
    50    23    30 1   
    51    26    46 1   
    52    27    47 1   
@<TRIPOS>SUBSTRUCTURE
     1 86C         1 TEMP              0 ****  ****    0 ROOT
