@<TRIPOS>MOLECULE
86C
   48    52     1     0     0
SMALL
No Charge or Current Charge


@<TRIPOS>ATOM
      1 C21         -3.5720    24.4540   -31.6320 c3         1 86C      -0.150400
      2 C12         -7.6120    22.9250   -36.5780 ca         1 86C      -0.136000
      3 C13         -6.7420    23.5810   -35.6900 ca         1 86C       0.166000
      4 C14         -2.4720    31.1440   -32.5900 cc         1 86C      -0.084000
      5 C15         -1.2810    31.4760   -31.9790 cd         1 86C      -0.317600
      6 C16         -1.5960    28.9830   -32.2490 cd         1 86C      -0.274000
      7 C17         -0.7770    32.8360   -31.7020 c          1 86C       0.649700
      8 C18         -1.3360    35.2500   -31.9390 cy         1 86C       0.046700
      9 C19         -2.2430    36.3320   -32.6070 cy         1 86C       0.120600
     10 C1          -2.6420    29.7440   -32.7130 cc         1 86C      -0.002200
     11 N1          -3.7380    29.1280   -33.3470 na         1 86C       0.092100
     12 S1          -0.3460    30.0300   -31.5500 ss         1 86C       0.360000
     13 C2          -4.0650    27.7650   -33.1820 ca         1 86C       0.369500
     14 C3          -5.1830    27.5860   -33.9540 ca         1 86C      -0.239900
     15 C4          -5.4980    28.8560   -34.5400 cc         1 86C       0.369800
     16 C5          -4.1900    25.5430   -32.4980 ca         1 86C       0.377300
     17 C6          -5.3420    25.2790   -33.3140 ca         1 86C       0.218000
     18 C7          -5.8610    26.3620   -34.0510 ca         1 86C      -0.056000
     19 C10         -8.7000    21.8240   -34.7080 ca         1 86C      -0.100000
     20 C11         -8.5960    22.0520   -36.0890 ca         1 86C      -0.092000
     21 C20         -0.2260    35.9430   -32.7930 cy         1 86C       0.120600
     22 C8          -6.8480    23.3820   -34.2840 ca         1 86C       0.241000
     23 C9          -7.8320    22.4750   -33.8130 ca         1 86C       0.094000
     24 N2          -4.6440    29.8090   -34.1670 nd         1 86C      -0.507100
     25 N3          -3.5700    26.7530   -32.4280 nb         1 86C      -0.664000
     26 N4          -5.9890    24.0160   -33.3470 nu         1 86C      -0.963000
     27 N5          -1.6230    33.8430   -32.1050 ns         1 86C      -0.480900
     28 O1           0.2960    33.0580   -31.1620 o          1 86C      -0.603100
     29 O2          -1.0380    37.1690   -32.7290 oq         1 86C      -0.444000
     30 Cl1         -8.0030    22.1420   -32.0850 cl         1 86C      -0.192000
     31 H16         -2.6390    24.7850   -31.1590 hc         1 86C       0.056367
     32 H17         -4.2600    24.1550   -30.8330 hc         1 86C       0.056367
     33 H15         -3.3390    23.5650   -32.2300 hc         1 86C       0.056367
     34 H6          -7.5140    23.0900   -37.6480 ha         1 86C       0.139000
     35 H7          -3.2170    31.8450   -32.9540 ha         1 86C       0.150000
     36 H8          -1.4290    27.9160   -32.2710 h4         1 86C       0.182000
     37 H10         -1.2000    35.4470   -30.8690 h1         1 86C       0.104700
     38 H11         -3.0090    36.7780   -31.9620 h1         1 86C       0.057450
     39 H12         -2.6480    36.0550   -33.5890 h1         1 86C       0.057450
     40 H1          -6.3050    29.1450   -35.2000 h4         1 86C       0.054800
     41 H2          -6.7610    26.2640   -34.6520 ha         1 86C       0.132000
     42 H4          -9.4530    21.1380   -34.3270 ha         1 86C       0.136000
     43 H5          -9.2680    21.5430   -36.7780 ha         1 86C       0.126000
     44 H13         -0.1320    35.5680   -33.8200 h1         1 86C       0.057450
     45 H14          0.7500    36.0510   -32.3070 h1         1 86C       0.057450
     46 H3          -5.8840    23.4780   -32.4820 hn         1 86C       0.493000
     47 H9          -2.4880    33.5500   -32.5380 hn         1 86C       0.320500
     48 F1          -5.7750    24.3730   -36.2150 f          1 86C      -0.161000
@<TRIPOS>BOND
     1     1    16 1   
     2     1    31 1   
     3     1    32 1   
     4     1    33 1   
     5     2     3 ar  
     6     2    20 ar  
     7     2    34 1   
     8     3    22 ar  
     9     3    48 1   
    10     4     5 2   
    11     4    10 1   
    12     4    35 1   
    13     5     7 1   
    14     5    12 1   
    15     6    10 2   
    16     6    12 1   
    17     6    36 1   
    18     7    27 1   
    19     7    28 2   
    20     8     9 1   
    21     8    21 1   
    22     8    27 1   
    23     8    37 1   
    24     9    29 1   
    25     9    38 1   
    26     9    39 1   
    27    10    11 1   
    28    11    13 1   
    29    11    24 1   
    30    13    14 ar  
    31    13    25 ar  
    32    14    15 1   
    33    14    18 ar  
    34    15    24 2   
    35    15    40 1   
    36    16    17 ar  
    37    16    25 ar  
    38    17    18 ar  
    39    17    26 1   
    40    18    41 1   
    41    19    20 ar  
    42    19    23 ar  
    43    19    42 1   
    44    20    43 1   
    45    21    29 1   
    46    21    44 1   
    47    21    45 1   
    48    22    23 ar  
    49    22    26 1   
    50    23    30 1   
    51    26    46 1   
    52    27    47 1   
@<TRIPOS>SUBSTRUCTURE
     1 86C         1 TEMP              0 ****  ****    0 ROOT
