@<TRIPOS>MOLECULE
86D
   38    40     1     0     0
SMALL
bcc


@<TRIPOS>ATOM
      1 N1          -6.5960    -0.4530     2.9980 n1         1 86D      -0.331800
      2 C17         -5.9360    -0.2680     2.0730 cg         1 86D       0.221800
      3 C6          -5.1190    -0.0360     0.9240 ca         1 86D       0.027000
      4 C7          -3.8450     0.5010     1.0930 ca         1 86D      -0.113000
      5 C8          -3.0760     0.7220    -0.0350 ca         1 86D       0.111100
      6 C9          -3.5390     0.4210    -1.3060 ca         1 86D      -0.164000
      7 C10         -4.8070    -0.1140    -1.4260 ca         1 86D       0.150900
      8 F1          -5.2620    -0.4120    -2.6440 f          1 86D      -0.124900
      9 C5          -5.6180    -0.3550    -0.3360 ca         1 86D      -0.134000
     10 O1          -1.8370     1.2890     0.1060 os         1 86D      -0.239200
     11 C1          -0.7460     0.4950     0.1560 ca         1 86D       0.210100
     12 C14          0.4790     1.1480     0.2360 ca         1 86D      -0.121300
     13 C15          0.7210     2.6280     0.2720 c5         1 86D      -0.067100
     14 C11          2.2050     2.6800    -0.0490 c5         1 86D       0.389600
     15 F5           2.8260     3.7790     0.4350 f          1 86D      -0.228300
     16 F2           2.3790     2.7070    -1.4040 f          1 86D      -0.228300
     17 C13          1.6590     0.4260     0.2980 ca         1 86D       0.041700
     18 C12          2.8200     1.3750     0.4880 c5         1 86D       0.149400
     19 O4           3.0620     1.4740     1.8610 oh         1 86D      -0.564800
     20 C4           1.6170    -0.9660     0.2760 ca         1 86D      -0.267500
     21 C3           0.3920    -1.6170     0.1920 ca         1 86D       0.009000
     22 C2          -0.7890    -0.8940     0.1430 ca         1 86D      -0.214000
     23 S1           3.0730    -1.9560     0.2790 sy         1 86D       1.041300
     24 O2           4.1720    -1.2610     0.9300 o          1 86D      -0.561800
     25 O3           2.7280    -3.3150     0.6700 o          1 86D      -0.561800
     26 C16          3.5020    -2.0540    -1.5060 c3         1 86D       0.357700
     27 F3           2.4040    -2.4460    -2.1690 f          1 86D      -0.216300
     28 F4           3.8420    -0.8250    -1.9250 f          1 86D      -0.216300
     29 H1          -3.4690     0.7430     2.0770 ha         1 86D       0.169000
     30 H2          -2.9290     0.6020    -2.1820 ha         1 86D       0.174000
     31 H3          -6.6060    -0.7770    -0.4600 ha         1 86D       0.171000
     32 H4           0.1240     3.1910    -0.4460 hc         1 86D       0.092700
     33 H5           0.5240     3.0340     1.2660 hc         1 86D       0.092700
     34 H6           3.7140     1.1090    -0.0800 h1         1 86D       0.092700
     35 H7           3.9750     1.7490     1.9970 ho         1 86D       0.432000
     36 H8           0.3360    -2.6960     0.1780 ha         1 86D       0.166000
     37 H9          -1.7240    -1.4340     0.0910 ha         1 86D       0.155000
     38 H12          4.3220    -2.7620    -1.6450 h3         1 86D       0.098700
@<TRIPOS>BOND
     1     1     2 3   
     2     2     3 1   
     3     3     4 ar  
     4     3     9 ar  
     5     4     5 ar  
     6     4    29 1   
     7     5     6 ar  
     8     5    10 1   
     9     6     7 ar  
    10     6    30 1   
    11     7     8 1   
    12     7     9 ar  
    13     9    31 1   
    14    10    11 1   
    15    11    12 ar  
    16    11    22 ar  
    17    12    13 1   
    18    12    17 ar  
    19    13    14 1   
    20    13    32 1   
    21    13    33 1   
    22    14    15 1   
    23    14    16 1   
    24    14    18 1   
    25    17    18 1   
    26    17    20 ar  
    27    18    19 1   
    28    18    34 1   
    29    19    35 1   
    30    20    21 ar  
    31    20    23 1   
    32    21    22 ar  
    33    21    36 1   
    34    22    37 1   
    35    23    24 2   
    36    23    25 2   
    37    23    26 1   
    38    26    27 1   
    39    26    28 1   
    40    26    38 1   
@<TRIPOS>SUBSTRUCTURE
     1 86D         1 TEMP              0 ****  ****    0 ROOT
