@<TRIPOS>MOLECULE
86D
   38    40     1     0     0
SMALL
No Charge or Current Charge


@<TRIPOS>ATOM
      1 N1          -7.6860     0.5150     1.9990 n1         1 86D      -0.421000
      2 C17         -6.6920     0.4180     1.3930 cg         1 86D       0.311000
      3 C6          -5.4740     0.2960     0.6380 ca         1 86D       0.027000
      4 C7          -4.2410     0.6540     1.2190 ca         1 86D      -0.095000
      5 C8          -3.0490     0.5280     0.4850 ca         1 86D       0.111100
      6 C9          -3.0860     0.0630    -0.8430 ca         1 86D      -0.146000
      7 C10         -4.3140    -0.2920    -1.4200 ca         1 86D       0.186000
      8 F1          -4.3490    -0.7410    -2.6940 f          1 86D      -0.160000
      9 C5          -5.5050    -0.1810    -0.6870 ca         1 86D      -0.116000
     10 O1          -1.8630     0.8980     1.0770 os         1 86D      -0.239200
     11 C1          -0.6740     0.2500     0.8310 ca         1 86D       0.210100
     12 C14          0.5010     0.9930     0.6560 ca         1 86D      -0.121300
     13 C15          0.6100     2.4990     0.6720 c5         1 86D      -0.067100
     14 C11          1.9750     2.6840    -0.0830 c5         1 86D       0.147000
     15 F5           2.6070     3.8700     0.2910 f          1 86D      -0.107000
     16 F2           1.7580     2.7430    -1.4600 f          1 86D      -0.107000
     17 C13          1.7200     0.3730     0.4190 ca         1 86D       0.041700
     18 C12          2.8340     1.4030     0.2810 c5         1 86D       0.172600
     19 O4           3.5460     1.5530     1.5210 oh         1 86D      -0.627000
     20 C4           1.7970    -1.0420     0.3290 ca         1 86D      -0.267500
     21 C3           0.6130    -1.7950     0.5100 ca         1 86D       0.027000
     22 C2          -0.6120    -1.1530     0.7690 ca         1 86D      -0.196000
     23 S1           3.3300    -1.9330    -0.0670 sy         1 86D       1.010500
     24 O2           4.4890    -1.1210     0.3270 o          1 86D      -0.491000
     25 O3           3.1920    -3.3160     0.4130 o          1 86D      -0.491000
     26 C16          3.3200    -2.0000    -1.8920 c3         1 86D       0.004300
     27 F3           2.2170    -2.6420    -2.3490 f          1 86D      -0.095000
     28 F4           3.3080    -0.7540    -2.4260 f          1 86D      -0.095000
     29 H1          -4.2020     1.0250     2.2410 ha         1 86D       0.151000
     30 H2          -2.1750    -0.0180    -1.4300 ha         1 86D       0.156000
     31 H3          -6.4480    -0.4610    -1.1520 ha         1 86D       0.153000
     32 H4          -0.2190     3.0020     0.1600 hc         1 86D       0.092700
     33 H5           0.6560     2.8880     1.6960 hc         1 86D       0.092700
     34 H6           3.5170     1.1510    -0.5420 h1         1 86D       0.092700
     35 H7           4.2330     2.2400     1.3780 ho         1 86D       0.471000
     36 H8           0.6320    -2.8830     0.4460 ha         1 86D       0.148000
     37 H9          -1.5100    -1.7470     0.9150 ha         1 86D       0.137000
     38 H12          4.2230    -2.5340    -2.1970 h3         1 86D       0.098700
@<TRIPOS>BOND
     1     1     2 3   
     2     2     3 1   
     3     3     4 ar  
     4     3     9 ar  
     5     4     5 ar  
     6     4    29 1   
     7     5     6 ar  
     8     5    10 1   
     9     6     7 ar  
    10     6    30 1   
    11     7     8 1   
    12     7     9 ar  
    13     9    31 1   
    14    10    11 1   
    15    11    12 ar  
    16    11    22 ar  
    17    12    13 1   
    18    12    17 ar  
    19    13    14 1   
    20    13    32 1   
    21    13    33 1   
    22    14    15 1   
    23    14    16 1   
    24    14    18 1   
    25    17    18 1   
    26    17    20 ar  
    27    18    19 1   
    28    18    34 1   
    29    19    35 1   
    30    20    21 ar  
    31    20    23 1   
    32    21    22 ar  
    33    21    36 1   
    34    22    37 1   
    35    23    24 2   
    36    23    25 2   
    37    23    26 1   
    38    26    27 1   
    39    26    28 1   
    40    26    38 1   
@<TRIPOS>SUBSTRUCTURE
     1 86D         1 TEMP              0 ****  ****    0 ROOT
