@<TRIPOS>MOLECULE
86G
   43    45     1     0     0
SMALL
No Charge or Current Charge


@<TRIPOS>ATOM
      1 C2           6.6830    -2.8640    -3.5860 c          1 86G       0.609100
      2 C4           4.7400    -4.5070    -3.1980 ca         1 86G      -0.024000
      3 C5           4.3820    -4.7960    -4.5310 ca         1 86G      -0.146500
      4 C6           3.3160    -5.6700    -4.8100 ca         1 86G      -0.080500
      5 C7           2.5830    -6.2770    -3.7700 ca         1 86G      -0.012000
      6 C8           1.4740    -7.1860    -4.0930 cc         1 86G      -0.149000
      7 N10         -0.2090    -8.5700    -3.8770 na         1 86G      -0.002200
      8 C12          0.9700    -7.5930    -5.3410 cc         1 86G       0.251900
      9 C15          7.6860    -2.0610    -2.7470 c3         1 86G      -0.112100
     10 C16          7.2410    -0.6070    -2.6160 ca         1 86G      -0.087300
     11 C17          7.6280     0.3430    -3.5810 ca         1 86G      -0.076000
     12 C18          7.2170     1.6870    -3.4690 ca         1 86G      -0.125300
     13 C19          6.4100     2.0750    -2.3830 ca         1 86G      -0.081000
     14 C21          6.4330    -0.2070    -1.5350 ca         1 86G      -0.100000
     15 C24          9.8520     3.1100    -3.5810 c3         1 86G       0.140900
     16 O1           6.6760    -2.7970    -4.8110 o          1 86G      -0.573100
     17 N3           5.8040    -3.6350    -2.8350 ns         1 86G      -0.144000
     18 C9           0.7170    -7.8130    -3.1450 cd         1 86G      -0.163000
     19 N11         -0.0460    -8.4290    -5.2570 nd         1 86G      -0.521800
     20 C13          2.9460    -5.9860    -2.4380 ca         1 86G      -0.080500
     21 C14          4.0110    -5.1120    -2.1590 ca         1 86G      -0.146500
     22 C20          6.0190     1.1300    -1.4190 ca         1 86G      -0.113000
     23 C22          7.6390     2.7150    -4.5160 c3         1 86G       0.200900
     24 O23          8.5660     3.6540    -3.9340 os         1 86G      -0.448000
     25 H1           4.9150    -4.3570    -5.3680 ha         1 86G       0.127000
     26 H2           3.0650    -5.8720    -5.8480 ha         1 86G       0.112000
     27 H3          -0.9370    -9.1700    -3.4870 hn         1 86G       0.371000
     28 H4           1.3200    -7.3010    -6.3220 h4         1 86G       0.039100
     29 H5           7.7660    -2.5000    -1.7450 hc         1 86G       0.067200
     30 H6           8.6660    -2.1020    -3.2370 hc         1 86G       0.067200
     31 H7           8.2500     0.0370    -4.4200 ha         1 86G       0.117000
     32 H8           6.0880     3.1100    -2.2850 ha         1 86G       0.124000
     33 H9           6.1240    -0.9300    -0.7830 ha         1 86G       0.107000
     34 H10         10.5050     3.9020    -3.1920 h1         1 86G       0.030033
     35 H11          9.7560     2.3400    -2.8050 h1         1 86G       0.030033
     36 H12         10.3410     2.6640    -4.4560 h1         1 86G       0.030033
     37 H13          5.9450    -3.5620    -1.8360 hn         1 86G       0.147000
     38 H14          0.7410    -7.7990    -2.0610 h4         1 86G       0.154000
     39 H15          2.4100    -6.4310    -1.6050 ha         1 86G       0.112000
     40 H16          4.2700    -4.9060    -1.1220 ha         1 86G       0.127000
     41 H17          5.3960     1.4350    -0.5820 ha         1 86G       0.115000
     42 H18          6.7440     3.2430    -4.8720 h1         1 86G       0.053200
     43 H19          8.0870     2.2120    -5.3840 h1         1 86G       0.053200
@<TRIPOS>BOND
     1     1     9 1   
     2     1    16 2   
     3     1    17 1   
     4     2     3 ar  
     5     2    17 1   
     6     2    21 ar  
     7     3     4 ar  
     8     3    25 1   
     9     4     5 ar  
    10     4    26 1   
    11     5     6 1   
    12     5    20 ar  
    13     6     8 1   
    14     6    18 2   
    15     7    18 1   
    16     7    19 1   
    17     7    27 1   
    18     8    19 2   
    19     8    28 1   
    20     9    10 1   
    21     9    29 1   
    22     9    30 1   
    23    10    11 ar  
    24    10    14 ar  
    25    11    12 ar  
    26    11    31 1   
    27    12    13 ar  
    28    12    23 1   
    29    13    22 ar  
    30    13    32 1   
    31    14    22 ar  
    32    14    33 1   
    33    15    24 1   
    34    15    34 1   
    35    15    35 1   
    36    15    36 1   
    37    17    37 1   
    38    18    38 1   
    39    20    21 ar  
    40    20    39 1   
    41    21    40 1   
    42    22    41 1   
    43    23    24 1   
    44    23    42 1   
    45    23    43 1   
@<TRIPOS>SUBSTRUCTURE
     1 86G         1 TEMP              0 ****  ****    0 ROOT
