@<TRIPOS>MOLECULE
86G
   43    45     1     0     0
SMALL
abcg2


@<TRIPOS>ATOM
      1 C2           6.5500    -2.8890    -3.5590 c          1 86G       0.609100
      2 C4           4.7260    -4.5400    -3.1630 ca         1 86G      -0.024000
      3 C5           4.2870    -4.7340    -4.4730 ca         1 86G      -0.146500
      4 C6           3.2210    -5.5850    -4.7260 ca         1 86G      -0.080500
      5 C7           2.5540    -6.2640    -3.7080 ca         1 86G      -0.012000
      6 C8           1.4330    -7.1540    -3.9970 cc         1 86G      -0.149000
      7 N10         -0.0940    -8.7110    -3.8900 na         1 86G      -0.002200
      8 C12          0.5990    -7.1730    -5.1360 cc         1 86G       0.251900
      9 C15          7.6090    -2.1200    -2.7850 c3         1 86G      -0.112100
     10 C16          7.2360    -0.6620    -2.7230 ca         1 86G      -0.087300
     11 C17          7.7550     0.2470    -3.6410 ca         1 86G      -0.076000
     12 C18          7.3990     1.5900    -3.6080 ca         1 86G      -0.125300
     13 C19          6.5050     2.0280    -2.6340 ca         1 86G      -0.081000
     14 C21          6.3440    -0.2080    -1.7580 ca         1 86G      -0.100000
     15 C24          9.7100     3.4300    -3.2920 c3         1 86G       0.140900
     16 O1           6.4030    -2.7320    -4.7560 o          1 86G      -0.573100
     17 N3           5.7950    -3.7170    -2.7950 ns         1 86G      -0.144000
     18 C9           0.9360    -8.1810    -3.2160 cd         1 86G      -0.163000
     19 N11         -0.3190    -8.1170    -5.0550 nd         1 86G      -0.521800
     20 C13          3.0020    -6.0560    -2.4010 ca         1 86G      -0.080500
     21 C14          4.0660    -5.2170    -2.1340 ca         1 86G      -0.146500
     22 C20          5.9820     1.1320    -1.7140 ca         1 86G      -0.113000
     23 C22          7.9680     2.5650    -4.6100 c3         1 86G       0.200900
     24 O23          8.5360     3.7050    -4.0170 os         1 86G      -0.448000
     25 H1           4.7680    -4.2380    -5.3000 ha         1 86G       0.127000
     26 H2           2.9170    -5.7260    -5.7560 ha         1 86G       0.112000
     27 H3          -0.6720    -9.4840    -3.6010 hn         1 86G       0.371000
     28 H4           0.6320    -6.5220    -5.9970 h4         1 86G       0.039100
     29 H5           7.7430    -2.5190    -1.7780 hc         1 86G       0.067200
     30 H6           8.5570    -2.2460    -3.3110 hc         1 86G       0.067200
     31 H7           8.4600    -0.0980    -4.3890 ha         1 86G       0.117000
     32 H8           6.2190     3.0720    -2.5900 ha         1 86G       0.124000
     33 H9           5.9340    -0.9010    -1.0320 ha         1 86G       0.107000
     34 H10         10.1010     4.3770    -2.9220 h1         1 86G       0.030033
     35 H11          9.5320     2.7740    -2.4340 h1         1 86G       0.030033
     36 H12         10.4770     2.9620    -3.9210 h1         1 86G       0.030033
     37 H13          6.0210    -3.7370    -1.8120 hn         1 86G       0.147000
     38 H14          1.2460    -8.5680    -2.2580 h4         1 86G       0.154000
     39 H15          2.5090    -6.5470    -1.5720 ha         1 86G       0.112000
     40 H16          4.3850    -5.0780    -1.1070 ha         1 86G       0.127000
     41 H17          5.2900     1.4770    -0.9570 ha         1 86G       0.115000
     42 H18          7.1700     2.9300    -5.2620 h1         1 86G       0.053200
     43 H19          8.6970     2.0490    -5.2510 h1         1 86G       0.053200
@<TRIPOS>BOND
     1     1     9 1   
     2     1    16 2   
     3     1    17 1   
     4     2     3 ar  
     5     2    17 1   
     6     2    21 ar  
     7     3     4 ar  
     8     3    25 1   
     9     4     5 ar  
    10     4    26 1   
    11     5     6 1   
    12     5    20 ar  
    13     6     8 1   
    14     6    18 2   
    15     7    18 1   
    16     7    19 1   
    17     7    27 1   
    18     8    19 2   
    19     8    28 1   
    20     9    10 1   
    21     9    29 1   
    22     9    30 1   
    23    10    11 ar  
    24    10    14 ar  
    25    11    12 ar  
    26    11    31 1   
    27    12    13 ar  
    28    12    23 1   
    29    13    22 ar  
    30    13    32 1   
    31    14    22 ar  
    32    14    33 1   
    33    15    24 1   
    34    15    34 1   
    35    15    35 1   
    36    15    36 1   
    37    17    37 1   
    38    18    38 1   
    39    20    21 ar  
    40    20    39 1   
    41    21    40 1   
    42    22    41 1   
    43    23    24 1   
    44    23    42 1   
    45    23    43 1   
@<TRIPOS>SUBSTRUCTURE
     1 86G         1 TEMP              0 ****  ****    0 ROOT
