@<TRIPOS>MOLECULE
86H
   55    59     1     0     0
SMALL
No Charge or Current Charge


@<TRIPOS>ATOM
      1 C4         -34.8020    31.0740     6.3530 ca         1 86H      -0.040600
      2 C5         -35.8790    30.8810     5.4620 ca         1 86H      -0.172000
      3 C6         -35.8900    31.3840     4.1740 ca         1 86H       0.228000
      4 C1         -33.7310    31.8340     5.8210 ca         1 86H      -0.158000
      5 C2         -33.7940    32.3410     4.4920 cp         1 86H       0.432500
      6 C35        -32.3700    31.0100    10.5330 c5         1 86H      -0.133400
      7 C34        -31.1830    30.1050    10.1280 c5         1 86H       0.134800
      8 N33        -31.7220    28.7580    10.4010 n7         1 86H      -0.827400
      9 C32        -33.0720    28.7810     9.7690 c5         1 86H       0.118800
     10 C31        -33.5800    30.2620     9.8990 c5         1 86H       0.079700
     11 N30        -33.6640    30.7940     8.5260 ns         1 86H      -0.491900
     12 C10        -34.7880    30.5070     7.7690 c          1 86H       0.608700
     13 O11        -35.7080    29.8350     8.2210 o          1 86H      -0.601100
     14 C9         -37.1110    30.1820     5.6300 cc         1 86H      -0.151100
     15 N8         -37.7890    30.3100     4.4270 na         1 86H       0.018500
     16 N7         -37.0640    31.0520     3.4900 nc         1 86H      -0.259400
     17 N3         -34.8620    32.1010     3.6930 nb         1 86H      -0.624000
     18 C12        -32.6760    33.1540     3.8920 cp         1 86H      -0.165500
     19 C17        -32.4590    33.1880     2.4890 ca         1 86H      -0.056000
     20 C16        -31.4170    33.9460     1.9270 ca         1 86H      -0.147500
     21 C13        -31.8000    33.9240     4.7030 ca         1 86H      -0.056000
     22 C14        -30.7610    34.6810     4.1360 ca         1 86H      -0.147500
     23 C15        -30.5620    34.7010     2.7480 ca         1 86H       0.286000
     24 N18        -29.5280    35.4770     2.2350 nu         1 86H      -0.890100
     25 S19        -29.3670    36.1640     0.7130 sy         1 86H       1.166600
     26 O20        -28.3400    37.1830     0.9370 o          1 86H      -0.523500
     27 O21        -29.1450    35.0290    -0.1860 o          1 86H      -0.523500
     28 C22        -30.9450    36.9490     0.3640 ca         1 86H      -0.278500
     29 C27        -31.6920    36.5060    -0.7510 ca         1 86H      -0.002000
     30 C26        -32.9360    37.0880    -1.0470 ca         1 86H      -0.116000
     31 C25        -33.4460    38.1120    -0.2360 ca         1 86H      -0.044000
     32 C24        -32.7140    38.5580     0.8770 ca         1 86H       0.098000
     33 Cl1        -33.4000    39.8440     1.8750 cl         1 86H      -0.163000
     34 C23        -31.4610    37.9820     1.1850 ca         1 86H       0.197000
     35 Cl2        -30.5880    38.5650     2.6120 cl         1 86H      -0.155000
     36 H1         -32.8430    32.0260     6.4090 ha         1 86H       0.121000
     37 H2         -32.2560    32.0460    10.1900 hc         1 86H       0.057700
     38 H3         -32.4690    31.0490    11.6240 hc         1 86H       0.057700
     39 H4         -30.2780    30.3150    10.7170 h1         1 86H       0.057700
     40 H5         -30.9300    30.2210     9.0630 h1         1 86H       0.057700
     41 H6         -31.8440    28.6720    11.4180 hn         1 86H       0.402000
     42 H8         -33.7540    28.0760    10.2640 h1         1 86H       0.065200
     43 H9         -33.0030    28.4720     8.7150 h1         1 86H       0.065200
     44 H10        -34.5080    30.3710    10.4780 h1         1 86H       0.079700
     45 H11        -32.9410    31.3550     8.0970 hn         1 86H       0.321500
     46 H12        -37.5440    29.6320     6.4590 h4         1 86H       0.248000
     47 H13        -38.7050    29.9310     4.1980 hn         1 86H       0.378000
     48 H14        -33.0990    32.6110     1.8230 ha         1 86H       0.129500
     49 H15        -31.2830    33.9310     0.8510 ha         1 86H       0.132500
     50 H16        -31.9320    33.9560     5.7820 ha         1 86H       0.129500
     51 H17        -30.1110    35.2630     4.7840 ha         1 86H       0.132500
     52 H18        -29.0680    36.1140     2.8700 hn         1 86H       0.505000
     53 H19        -31.3170    35.7120    -1.3950 ha         1 86H       0.152000
     54 H20        -33.5050    36.7420    -1.9080 ha         1 86H       0.131000
     55 H21        -34.4090    38.5600    -0.4660 ha         1 86H       0.137000
@<TRIPOS>BOND
     1     1     2 ar  
     2     1     4 ar  
     3     1    12 1   
     4     2     3 ar  
     5     2    14 2   
     6     3    16 2   
     7     3    17 ar  
     8     4     5 ar  
     9     4    36 1   
    10     5    17 ar  
    11     5    18 1   
    12     6     7 1   
    13     6    10 1   
    14     6    37 1   
    15     6    38 1   
    16     7     8 1   
    17     7    39 1   
    18     7    40 1   
    19     8     9 1   
    20     8    41 1   
    21     9    10 1   
    22     9    42 1   
    23     9    43 1   
    24    10    11 1   
    25    10    44 1   
    26    11    12 1   
    27    11    45 1   
    28    12    13 2   
    29    14    15 1   
    30    14    46 1   
    31    15    16 1   
    32    15    47 1   
    33    18    19 ar  
    34    18    21 ar  
    35    19    20 ar  
    36    19    48 1   
    37    20    23 ar  
    38    20    49 1   
    39    21    22 ar  
    40    21    50 1   
    41    22    23 ar  
    42    22    51 1   
    43    23    24 1   
    44    24    25 1   
    45    24    52 1   
    46    25    26 2   
    47    25    27 2   
    48    25    28 1   
    49    28    29 ar  
    50    28    34 ar  
    51    29    30 ar  
    52    29    53 1   
    53    30    31 ar  
    54    30    54 1   
    55    31    32 ar  
    56    31    55 1   
    57    32    33 1   
    58    32    34 ar  
    59    34    35 1   
@<TRIPOS>SUBSTRUCTURE
     1 86H         1 TEMP              0 ****  ****    0 ROOT
