@<TRIPOS>MOLECULE
86H
   55    59     1     0     0
SMALL
abcg2


@<TRIPOS>ATOM
      1 C4         -34.5830    31.3260     6.2590 ca         1 86H      -0.040600
      2 C5         -35.5790    30.8380     5.3890 ca         1 86H      -0.172000
      3 C6         -35.4670    31.1370     4.0030 ca         1 86H       0.228000
      4 C1         -33.6010    32.0930     5.6930 ca         1 86H      -0.158000
      5 C2         -33.5910    32.3560     4.2870 cp         1 86H       0.432500
      6 C35        -32.0250    30.8320    10.3450 c5         1 86H      -0.133400
      7 C34        -31.4530    29.4150    10.4210 c5         1 86H       0.134800
      8 N33        -32.5750    28.5710    10.8100 n7         1 86H      -0.827400
      9 C32        -33.7200    29.1070    10.0830 c5         1 86H       0.118800
     10 C31        -33.4410    30.6140     9.7920 c5         1 86H       0.079700
     11 N30        -33.5020    30.9280     8.3760 ns         1 86H      -0.491900
     12 C10        -34.6650    31.0170     7.7210 c          1 86H       0.608700
     13 O11        -35.7550    30.8590     8.2550 o          1 86H      -0.601100
     14 C9         -36.7220    30.0520     5.4760 cc         1 86H      -0.151100
     15 N8         -37.1700    29.9530     4.2240 na         1 86H       0.018500
     16 N7         -36.4560    30.5840     3.3030 nc         1 86H      -0.259400
     17 N3         -34.4910    31.8850     3.4620 nb         1 86H      -0.624000
     18 C12        -32.5110    33.1760     3.6980 cp         1 86H      -0.165500
     19 C17        -32.1510    32.9950     2.3630 ca         1 86H      -0.056000
     20 C16        -31.1400    33.7350     1.7800 ca         1 86H      -0.147500
     21 C13        -31.8330    34.1480     4.4330 ca         1 86H      -0.056000
     22 C14        -30.8430    34.9190     3.8500 ca         1 86H      -0.147500
     23 C15        -30.4830    34.7150     2.5220 ca         1 86H       0.286000
     24 N18        -29.4450    35.4930     1.9760 nu         1 86H      -0.890100
     25 S19        -29.5710    36.2360     0.5020 sy         1 86H       1.166600
     26 O20        -28.5500    37.2620     0.4780 o          1 86H      -0.523500
     27 O21        -29.5800    35.2160    -0.5270 o          1 86H      -0.523500
     28 C22        -31.1920    36.9860     0.4840 ca         1 86H      -0.278500
     29 C27        -32.0890    36.5620    -0.4840 ca         1 86H      -0.002000
     30 C26        -33.3470    37.1390    -0.5570 ca         1 86H      -0.116000
     31 C25        -33.7080    38.1360     0.3300 ca         1 86H      -0.044000
     32 C24        -32.8100    38.5590     1.3000 ca         1 86H       0.098000
     33 CL1        -33.2800    39.8010     2.3900 cl         1 86H      -0.163000
     34 C23        -31.5460    37.9870     1.3890 ca         1 86H       0.197000
     35 CL2        -30.4680    38.5140     2.6130 cl         1 86H      -0.155000
     36 H1         -32.8120    32.5080     6.3040 ha         1 86H       0.121000
     37 H2         -31.4340    31.5220     9.7410 hc         1 86H       0.057700
     38 H3         -32.0900    31.2540    11.3500 hc         1 86H       0.057700
     39 H4         -30.6280    29.3180    11.1270 h1         1 86H       0.057700
     40 H5         -31.0830    29.0990     9.4410 h1         1 86H       0.057700
     41 H6         -32.7330    28.6920    11.8030 hn         1 86H       0.402000
     42 H8         -34.6370    28.9590    10.6520 h1         1 86H       0.065200
     43 H9         -33.8360    28.5790     9.1330 h1         1 86H       0.065200
     44 H10        -34.1640    31.2480    10.3040 h1         1 86H       0.079700
     45 H11        -32.6400    30.9310     7.8520 hn         1 86H       0.321500
     46 H12        -37.2280    29.5830     6.3020 h4         1 86H       0.248000
     47 H13        -37.9960    29.4460     3.9370 hn         1 86H       0.378000
     48 H14        -32.6530    32.2400     1.7730 ha         1 86H       0.129500
     49 H15        -30.8610    33.5310     0.7560 ha         1 86H       0.132500
     50 H16        -32.0920    34.3420     5.4650 ha         1 86H       0.129500
     51 H17        -30.3510    35.6890     4.4320 ha         1 86H       0.132500
     52 H18        -28.9180    36.0450     2.6430 hn         1 86H       0.505000
     53 H19        -31.8130    35.7850    -1.1810 ha         1 86H       0.152000
     54 H20        -34.0480    36.8090    -1.3110 ha         1 86H       0.131000
     55 H21        -34.6870    38.5910     0.2750 ha         1 86H       0.137000
@<TRIPOS>BOND
     1     1     2 ar  
     2     1     4 ar  
     3     1    12 1   
     4     2     3 ar  
     5     2    14 2   
     6     3    16 2   
     7     3    17 ar  
     8     4     5 ar  
     9     4    36 1   
    10     5    17 ar  
    11     5    18 1   
    12     6     7 1   
    13     6    10 1   
    14     6    37 1   
    15     6    38 1   
    16     7     8 1   
    17     7    39 1   
    18     7    40 1   
    19     8     9 1   
    20     8    41 1   
    21     9    10 1   
    22     9    42 1   
    23     9    43 1   
    24    10    11 1   
    25    10    44 1   
    26    11    12 1   
    27    11    45 1   
    28    12    13 2   
    29    14    15 1   
    30    14    46 1   
    31    15    16 1   
    32    15    47 1   
    33    18    19 ar  
    34    18    21 ar  
    35    19    20 ar  
    36    19    48 1   
    37    20    23 ar  
    38    20    49 1   
    39    21    22 ar  
    40    21    50 1   
    41    22    23 ar  
    42    22    51 1   
    43    23    24 1   
    44    24    25 1   
    45    24    52 1   
    46    25    26 2   
    47    25    27 2   
    48    25    28 1   
    49    28    29 ar  
    50    28    34 ar  
    51    29    30 ar  
    52    29    53 1   
    53    30    31 ar  
    54    30    54 1   
    55    31    32 ar  
    56    31    55 1   
    57    32    33 1   
    58    32    34 ar  
    59    34    35 1   
@<TRIPOS>SUBSTRUCTURE
     1 86H         1 TEMP              0 ****  ****    0 ROOT
