@<TRIPOS>MOLECULE
86I
   56    61     1     0     0
SMALL
No Charge or Current Charge


@<TRIPOS>ATOM
      1 C16          2.4050    13.5220    30.7890 ca         1 86I      -0.098000
      2 C11          1.2260    12.8590    31.1460 ca         1 86I      -0.094000
      3 C10          2.6490    14.8210    31.2590 ca         1 86I      -0.068000
      4 C6           0.2950    13.4960    31.9780 ca         1 86I      -0.071000
      5 C18         -3.9170    17.8690    35.1700 ca         1 86I      -0.080000
      6 C13         -3.0770    17.6990    34.0510 ca         1 86I      -0.054000
      7 C12         -2.8570    15.9650    36.2660 ca         1 86I      -0.057000
      8 C5           1.7140    15.4970    32.0800 ca         1 86I      -0.126500
      9 C2           0.5170    14.8070    32.4530 ca         1 86I      -0.096900
     10 C17         -3.8090    17.0060    36.2860 ca         1 86I      -0.108300
     11 C8          -2.1310    16.6630    34.0510 ca         1 86I       0.098400
     12 C7          -2.0350    15.8220    35.1390 ca         1 86I      -0.198000
     13 C9           2.0850    16.8420    32.5760 cc         1 86I       0.438000
     14 C1          -0.5020    15.3640    33.3470 cc         1 86I       0.416800
     15 C27         -3.7690    20.4590    39.1910 cc         1 86I      -0.203000
     16 C24         -3.6830    19.1350    38.7410 cd         1 86I      -0.074000
     17 C29         -4.8930    21.3310    38.9570 cc         1 86I       0.069700
     18 C25         -5.9040    20.7540    38.2380 cd         1 86I       0.021400
     19 C23         -5.8320    19.4510    37.7930 cd         1 86I      -0.075000
     20 C30         -7.6290    20.3490    37.2180 cc         1 86I       0.574300
     21 C31         -4.8880    22.7450    39.4820 c3         1 86I      -0.055800
     22 C34        -11.5240    20.0760    36.8290 c3         1 86I      -0.089100
     23 C32         -8.9880    20.4540    36.5750 c3         1 86I      -0.082700
     24 C33        -10.1360    19.9680    37.4900 c3         1 86I      -0.073400
     25 N4          -1.2580    16.4170    33.0000 nd         1 86I      -0.524100
     26 N15          1.2540    17.8100    33.0580 na         1 86I      -0.201700
     27 N20          1.9500    18.9200    33.4070 nc         1 86I      -0.199800
     28 N19          3.1890    18.6200    33.1320 nd         1 86I      -0.047000
     29 N28         -7.0670    21.3730    37.8820 nd         1 86I      -0.609100
     30 N26         -6.9230    19.1520    37.1290 nc         1 86I      -0.466300
     31 N14          3.3010    17.3520    32.6110 nd         1 86I      -0.374000
     32 N22         -4.7610    18.5760    38.0040 na         1 86I       0.080000
     33 S3          -0.7960    14.5960    34.9250 ss         1 86I       0.075800
     34 H1           3.1360    13.0280    30.1510 ha         1 86I       0.126000
     35 H2           1.0370    11.8500    30.7860 ha         1 86I       0.125000
     36 H3           3.5790    15.3080    30.9700 ha         1 86I       0.136000
     37 H4          -0.6140    12.9640    32.2540 ha         1 86I       0.137000
     38 H5          -4.6520    18.6720    35.1650 ha         1 86I       0.150000
     39 H6          -3.1600    18.3630    33.1950 ha         1 86I       0.140000
     40 H7          -2.7570    15.2840    37.1090 ha         1 86I       0.123000
     41 H8          -2.9330    20.8640    39.7530 ha         1 86I       0.134000
     42 H9          -2.8300    18.4910    38.9190 h4         1 86I       0.141000
     43 H10         -5.7630    22.9250    40.1160 hc         1 86I       0.059033
     44 H11         -3.9930    22.9540    40.0790 hc         1 86I       0.059033
     45 H12         -4.9160    23.4630    38.6550 hc         1 86I       0.059033
     46 H13        -12.3020    19.7210    37.5150 hc         1 86I       0.030367
     47 H14        -11.7480    21.1170    36.5660 hc         1 86I       0.030367
     48 H15        -11.5680    19.4700    35.9160 hc         1 86I       0.030367
     49 H16         -5.7320    16.8630    37.2400 h1         1 86I       0.084700
     50 H17         -4.3770    16.5440    38.3190 h1         1 86I       0.084700
     51 H18         -8.9950    19.8710    35.6460 hc         1 86I       0.055200
     52 H19         -9.1740    21.4950    36.2860 hc         1 86I       0.055200
     53 H20         -9.9550    18.9230    37.7730 hc         1 86I       0.045700
     54 H21        -10.1330    20.5550    38.4170 hc         1 86I       0.045700
     55 H22          0.2450    17.7490    33.1350 hn         1 86I       0.395000
     56 C21         -4.7180    17.1890    37.5000 c3         1 86I       0.103900
@<TRIPOS>BOND
     1     1     2 ar  
     2     1     3 ar  
     3     1    34 1   
     4     2     4 ar  
     5     2    35 1   
     6     3     8 ar  
     7     3    36 1   
     8     4     9 ar  
     9     4    37 1   
    10     5     6 ar  
    11     5    10 ar  
    12     5    38 1   
    13     6    11 ar  
    14     6    39 1   
    15     7    10 ar  
    16     7    12 ar  
    17     7    40 1   
    18     8     9 ar  
    19     8    13 1   
    20     9    14 1   
    21    10    56 1   
    22    11    12 ar  
    23    11    25 1   
    24    12    33 1   
    25    13    26 1   
    26    13    31 2   
    27    14    25 2   
    28    14    33 1   
    29    15    16 2   
    30    15    17 1   
    31    15    41 1   
    32    16    32 1   
    33    16    42 1   
    34    17    18 2   
    35    17    21 1   
    36    18    19 1   
    37    18    29 1   
    38    19    30 2   
    39    19    32 1   
    40    20    23 1   
    41    20    29 2   
    42    20    30 1   
    43    21    43 1   
    44    21    44 1   
    45    21    45 1   
    46    22    24 1   
    47    22    46 1   
    48    22    47 1   
    49    22    48 1   
    50    23    24 1   
    51    23    51 1   
    52    23    52 1   
    53    24    53 1   
    54    24    54 1   
    55    26    27 1   
    56    26    55 1   
    57    27    28 2   
    58    28    31 1   
    59    32    56 1   
    60    49    56 1   
    61    50    56 1   
@<TRIPOS>SUBSTRUCTURE
     1 86I         1 TEMP              0 ****  ****    0 ROOT
