@<TRIPOS>MOLECULE
86I
   56    61     1     0     0
SMALL
bcc


@<TRIPOS>ATOM
      1 C16          2.1320    14.2040    30.4880 ca         1 86I      -0.116000
      2 C11          0.7940    13.8410    30.4110 ca         1 86I      -0.112000
      3 C10          2.5520    15.0820    31.4730 ca         1 86I      -0.086000
      4 C6          -0.1140    14.3360    31.3320 ca         1 86I      -0.089000
      5 C18         -4.5850    16.9550    35.3390 ca         1 86I      -0.098000
      6 C13         -3.9660    16.7080    34.1320 ca         1 86I      -0.072000
      7 C12         -2.5810    16.3810    36.5670 ca         1 86I      -0.075000
      8 C5           1.6440    15.5970    32.3920 ca         1 86I      -0.126500
      9 C2           0.3000    15.2050    32.3400 ca         1 86I      -0.096900
     10 C17         -3.9010    16.7990    36.5560 ca         1 86I      -0.108300
     11 C8          -2.6350    16.2870    34.1300 ca         1 86I       0.098400
     12 C7          -1.9610    16.1280    35.3490 ca         1 86I      -0.071100
     13 C9           2.1320    16.5710    33.3700 cc         1 86I       0.438000
     14 C1          -0.6960    15.6390    33.3270 cc         1 86I       0.416800
     15 C27         -3.5670    20.5150    38.9310 cc         1 86I      -0.221000
     16 C24         -3.5880    19.1590    38.7170 cd         1 86I      -0.041300
     17 C29         -4.6330    21.3440    38.5410 cc         1 86I       0.069700
     18 C25         -5.6980    20.7060    37.9330 cd         1 86I       0.021400
     19 C23         -5.6800    19.2970    37.7280 cd         1 86I      -0.024300
     20 C30         -7.4680    20.0730    36.9740 cc         1 86I       0.574300
     21 C31         -4.6190    22.8150    38.7900 c3         1 86I      -0.055800
     22 C34        -11.3250    20.0820    36.8240 c3         1 86I      -0.089100
     23 C32         -8.8320    20.1020    36.3730 c3         1 86I      -0.082700
     24 C33         -9.9320    20.0530    37.4370 c3         1 86I      -0.073400
     25 N4          -1.8920    15.9980    33.0140 nd         1 86I      -0.524100
     26 N15          1.6610    17.8080    33.5490 na         1 86I      -0.151400
     27 N20          2.3590    18.4010    34.4980 nc         1 86I      -0.199800
     28 N19          3.2370    17.5590    34.8800 nd         1 86I      -0.047000
     29 N28         -6.8740    21.1690    37.4310 nd         1 86I      -0.609100
     30 N26         -6.7940    18.9040    37.1250 nc         1 86I      -0.466300
     31 N14          3.1320    16.4150    34.2060 nd         1 86I      -0.374000
     32 N22         -4.6310    18.5470    38.1220 na         1 86I       0.007900
     33 S3          -0.3500    15.5880    35.0420 ss         1 86I      -0.051100
     34 H1           2.8460    13.8120    29.7770 ha         1 86I       0.144000
     35 H2           0.4580    13.1610    29.6400 ha         1 86I       0.143000
     36 H3           3.5890    15.3900    31.5190 ha         1 86I       0.154000
     37 H4          -1.1500    14.0300    31.2900 ha         1 86I       0.155000
     38 H5          -5.6170    17.2770    35.3550 ha         1 86I       0.168000
     39 H6          -4.4970    16.8290    33.1980 ha         1 86I       0.158000
     40 H7          -2.0500    16.2520    37.5020 ha         1 86I       0.141000
     41 H8          -2.6980    20.9390    39.4150 ha         1 86I       0.152000
     42 H9          -2.7690    18.5210    39.0180 h4         1 86I       0.159000
     43 H10         -5.1590    23.0470    39.7110 hc         1 86I       0.059033
     44 H11         -3.6030    23.1900    38.9020 hc         1 86I       0.059033
     45 H12         -5.1080    23.3590    37.9840 hc         1 86I       0.059033
     46 H13        -12.0970    20.0460    37.5930 hc         1 86I       0.030367
     47 H14        -11.4790    20.9910    36.2400 hc         1 86I       0.030367
     48 H15        -11.4800    19.2320    36.1580 hc         1 86I       0.030367
     49 H16         -5.6290    16.7520    37.8410 h1         1 86I       0.084700
     50 H17         -4.0920    16.6250    38.6900 h1         1 86I       0.084700
     51 H18         -8.9460    19.2570    35.6920 hc         1 86I       0.055200
     52 H19         -8.9460    21.0140    35.7820 hc         1 86I       0.055200
     53 H20         -9.8100    19.1510    38.0420 hc         1 86I       0.045700
     54 H21         -9.8070    20.8990    38.1180 hc         1 86I       0.045700
     55 H22          0.9070    18.2910    33.0780 hn         1 86I       0.344700
     56 C21         -4.5990    17.1040    37.8540 c3         1 86I       0.074600
@<TRIPOS>BOND
     1     1     2 ar  
     2     1     3 ar  
     3     1    34 1   
     4     2     4 ar  
     5     2    35 1   
     6     3     8 ar  
     7     3    36 1   
     8     4     9 ar  
     9     4    37 1   
    10     5     6 ar  
    11     5    10 ar  
    12     5    38 1   
    13     6    11 ar  
    14     6    39 1   
    15     7    10 ar  
    16     7    12 ar  
    17     7    40 1   
    18     8     9 ar  
    19     8    13 1   
    20     9    14 1   
    21    10    56 1   
    22    11    12 ar  
    23    11    25 1   
    24    12    33 1   
    25    13    26 1   
    26    13    31 2   
    27    14    25 2   
    28    14    33 1   
    29    15    16 2   
    30    15    17 1   
    31    15    41 1   
    32    16    32 1   
    33    16    42 1   
    34    17    18 2   
    35    17    21 1   
    36    18    19 1   
    37    18    29 1   
    38    19    30 2   
    39    19    32 1   
    40    20    23 1   
    41    20    29 2   
    42    20    30 1   
    43    21    43 1   
    44    21    44 1   
    45    21    45 1   
    46    22    24 1   
    47    22    46 1   
    48    22    47 1   
    49    22    48 1   
    50    23    24 1   
    51    23    51 1   
    52    23    52 1   
    53    24    53 1   
    54    24    54 1   
    55    26    27 1   
    56    26    55 1   
    57    27    28 2   
    58    28    31 1   
    59    32    56 1   
    60    49    56 1   
    61    50    56 1   
@<TRIPOS>SUBSTRUCTURE
     1 86I         1 TEMP              0 ****  ****    0 ROOT
