@<TRIPOS>MOLECULE
86J
   20    21     1     0     0
SMALL
abcg2


@<TRIPOS>ATOM
      1 C11          1.3510    -0.8110     0.0070 cc         1 86J      -0.025100
      2 C01          3.6420     0.3330     0.0620 c3         1 86J      -0.018900
      3 C02          2.1550     0.3100     0.0380 cd         1 86J       0.052400
      4 N03          1.4140     1.4460     0.0270 nd         1 86J      -0.280600
      5 C04          0.1530     1.0550     0.0000 cc         1 86J      -0.085000
      6 C05         -1.0430     1.7990    -0.0040 cc         1 86J      -0.053000
      7 C06         -2.2430     1.1490    -0.0360 cd         1 86J      -0.137000
      8 C07         -2.2540    -0.2620    -0.0670 cd         1 86J       0.127000
      9 F08         -3.4380    -0.8910    -0.1070 f          1 86J      -0.167000
     10 C09         -1.1180    -0.9980    -0.0580 cc         1 86J      -0.138000
     11 N10          0.0660    -0.3240    -0.0210 na         1 86J       0.152100
     12 N12          1.5840    -2.1820    -0.0330 nv         1 86J      -0.898000
     13 H011         4.0520     0.6720    -0.8920 hc         1 86J       0.046367
     14 H012         4.0090     1.0120     0.8320 hc         1 86J       0.046367
     15 H013         4.0500    -0.6560     0.2640 hc         1 86J       0.046367
     16 H051        -0.9890     2.8780     0.0180 ha         1 86J       0.147000
     17 H061        -3.1750     1.6970    -0.0390 ha         1 86J       0.141000
     18 H091        -1.0820    -2.0770    -0.0820 h4         1 86J       0.174000
     19 H122         1.7930    -2.5770     0.8750 hn         1 86J       0.434500
     20 H121         2.3290    -2.4290    -0.6670 hn         1 86J       0.434500
@<TRIPOS>BOND
     1     1     3 2   
     2     1    11 1   
     3     1    12 1   
     4     2     3 1   
     5     2    13 1   
     6     2    14 1   
     7     2    15 1   
     8     3     4 1   
     9     4     5 2   
    10     5     6 1   
    11     5    11 1   
    12     6     7 2   
    13     6    16 1   
    14     7     8 1   
    15     7    17 1   
    16     8     9 1   
    17     8    10 2   
    18    10    11 1   
    19    10    18 1   
    20    12    19 1   
    21    12    20 1   
@<TRIPOS>SUBSTRUCTURE
     1 86J         1 TEMP              0 ****  ****    0 ROOT
