@<TRIPOS>MOLECULE
86J
   20    21     1     0     0
SMALL
No Charge or Current Charge


@<TRIPOS>ATOM
      1 C11          1.3840    -0.8060    -0.0260 cc         1 86J      -0.025100
      2 C01          3.6820     0.3890     0.0220 c3         1 86J      -0.018900
      3 C02          2.1770     0.3280     0.0200 cd         1 86J       0.052400
      4 N03          1.4030     1.4880     0.0690 nd         1 86J      -0.280600
      5 C04          0.1450     1.0820     0.0530 cc         1 86J      -0.085000
      6 C05         -1.0600     1.8340     0.0850 cc         1 86J      -0.053000
      7 C06         -2.2530     1.1500     0.0570 cd         1 86J      -0.137000
      8 C07         -2.2330    -0.2930    -0.0030 cd         1 86J       0.127000
      9 F08         -3.4240    -0.9140    -0.0280 f          1 86J      -0.167000
     10 C09         -1.0610    -1.0440    -0.0350 cc         1 86J      -0.138000
     11 N10          0.1130    -0.2810    -0.0040 na         1 86J       0.152100
     12 N12          1.7050    -2.1510    -0.0830 nv         1 86J      -0.898000
     13 H011         4.0930    -0.0720    -0.8840 hc         1 86J       0.046367
     14 H012         4.0430     1.4240     0.0630 hc         1 86J       0.046367
     15 H013         4.0940    -0.1430     0.8880 hc         1 86J       0.046367
     16 H051        -1.0240     2.9190     0.1300 ha         1 86J       0.147000
     17 H061        -3.1960     1.6860     0.0800 ha         1 86J       0.141000
     18 H091        -0.9980    -2.1210    -0.0800 h4         1 86J       0.174000
     19 H122         0.9870    -2.8730    -0.1120 hn         1 86J       0.434500
     20 H121         2.6790    -2.4570    -0.0960 hn         1 86J       0.434500
@<TRIPOS>BOND
     1     1     3 2   
     2     1    11 1   
     3     1    12 1   
     4     2     3 1   
     5     2    13 1   
     6     2    14 1   
     7     2    15 1   
     8     3     4 1   
     9     4     5 2   
    10     5     6 1   
    11     5    11 1   
    12     6     7 2   
    13     6    16 1   
    14     7     8 1   
    15     7    17 1   
    16     8     9 1   
    17     8    10 2   
    18    10    11 1   
    19    10    18 1   
    20    12    19 1   
    21    12    20 1   
@<TRIPOS>SUBSTRUCTURE
     1 86J         1 TEMP              0 ****  ****    0 ROOT
