@<TRIPOS>MOLECULE
86K
   48    51     1     0     0
SMALL
abcg2


@<TRIPOS>ATOM
      1 C2         -29.9640     3.7440    -6.9550 c          1 86K       0.567100
      2 C3         -30.5520     3.3490    -5.5880 c3         1 86K       0.153800
      3 C5         -32.4670     1.8590    -6.0410 c3         1 86K       0.214100
      4 C6         -30.2680     0.9210    -5.5020 ca         1 86K       0.335000
      5 C7         -30.7790    -0.3850    -5.6470 ca         1 86K      -0.178000
      6 C8         -29.9500    -1.4940    -5.5420 ca         1 86K      -0.070500
      7 C11        -28.8810     1.0500    -5.2760 ca         1 86K      -0.178000
      8 C15        -27.0000     6.5110    -6.9360 ce         1 86K      -0.011200
      9 C16        -27.3110     5.6910    -8.1680 c6         1 86K      -0.059200
     10 C17        -28.8030     5.4210    -8.3020 c6         1 86K       0.096000
     11 C18        -25.6920     7.1600    -6.8760 cc         1 86K      -0.100200
     12 C19        -24.8770     7.4160    -7.9600 cd         1 86K      -0.129100
     13 C24        -23.0150     8.7840    -4.1550 ca         1 86K       0.355900
     14 C27        -24.9720     7.6550    -5.7220 ca         1 86K      -0.119800
     15 O1         -30.0820     2.9890    -7.9210 o          1 86K      -0.597100
     16 N4         -31.1040     2.0200    -5.5640 nh         1 86K      -0.808400
     17 C9         -28.5870    -1.3540    -5.3000 ca         1 86K      -0.160000
     18 C10        -28.0680    -0.0690    -5.1730 ca         1 86K      -0.070500
     19 N12        -29.3450     4.9420    -7.0350 n          1 86K      -0.416800
     20 C13        -29.2310     5.9000    -5.9420 c6         1 86K       0.146200
     21 C14        -27.9120     6.6140    -5.9600 c2         1 86K      -0.256200
     22 N20        -23.7240     8.0430    -7.5600 na         1 86K      -0.330400
     23 C22        -23.7480     8.2050    -6.2000 ca         1 86K       0.368500
     24 N23        -22.7870     8.7610    -5.4720 nb         1 86K      -0.681000
     25 C25        -24.1640     8.2570    -3.5570 ca         1 86K      -0.193000
     26 C26        -25.1590     7.6820    -4.3380 ca         1 86K      -0.029000
     27 H1         -29.7950     3.4520    -4.8110 h1         1 86K       0.066700
     28 H2         -31.3410     4.0600    -5.3380 h1         1 86K       0.066700
     29 H3         -32.5050     1.4550    -7.0580 h1         1 86K       0.038700
     30 H4         -33.0370     1.1960    -5.3860 h1         1 86K       0.038700
     31 H5         -32.9540     2.8310    -6.0380 h1         1 86K       0.038700
     32 H6         -31.8300    -0.5380    -5.8410 ha         1 86K       0.108000
     33 H7         -30.3820    -2.4810    -5.6560 ha         1 86K       0.106000
     34 H8         -28.4260     2.0250    -5.1890 ha         1 86K       0.108000
     35 H9         -26.7570     4.7480    -8.1330 hc         1 86K       0.057700
     36 H10        -26.9740     6.2160    -9.0640 hc         1 86K       0.057700
     37 H11        -29.3250     6.3440    -8.5730 h1         1 86K       0.062700
     38 H12        -29.0030     4.6750    -9.0640 h1         1 86K       0.062700
     39 H13        -25.0370     7.2050    -9.0040 h4         1 86K       0.218000
     40 H14        -22.2440     9.2380    -3.5420 h4         1 86K       0.021100
     41 H15        -27.9450    -2.2220    -5.2220 ha         1 86K       0.111000
     42 H16        -27.0080     0.0720    -4.9990 ha         1 86K       0.106000
     43 H17        -30.0530     6.6280    -5.9990 h1         1 86K       0.047700
     44 H18        -29.3380     5.3920    -4.9860 h1         1 86K       0.047700
     45 H19        -27.7350     7.2480    -5.1010 ha         1 86K       0.182000
     46 H20        -22.9750     8.3380    -8.1660 hn         1 86K       0.365000
     47 H21        -24.2680     8.3000    -2.4810 ha         1 86K       0.122000
     48 H22        -26.0400     7.2640    -3.8730 ha         1 86K       0.120000
@<TRIPOS>BOND
     1     1     2 1   
     2     1    15 2   
     3     1    19 1   
     4     2    16 1   
     5     2    27 1   
     6     2    28 1   
     7     3    16 1   
     8     3    29 1   
     9     3    30 1   
    10     3    31 1   
    11     4     5 ar  
    12     4     7 ar  
    13     4    16 1   
    14     5     6 ar  
    15     5    32 1   
    16     6    17 ar  
    17     6    33 1   
    18     7    18 ar  
    19     7    34 1   
    20     8     9 1   
    21     8    11 1   
    22     8    21 2   
    23     9    10 1   
    24     9    35 1   
    25     9    36 1   
    26    10    19 1   
    27    10    37 1   
    28    10    38 1   
    29    11    12 2   
    30    11    14 1   
    31    12    22 1   
    32    12    39 1   
    33    13    24 ar  
    34    13    25 ar  
    35    13    40 1   
    36    14    23 ar  
    37    14    26 ar  
    38    17    18 ar  
    39    17    41 1   
    40    18    42 1   
    41    19    20 1   
    42    20    21 1   
    43    20    43 1   
    44    20    44 1   
    45    21    45 1   
    46    22    23 1   
    47    22    46 1   
    48    23    24 ar  
    49    25    26 ar  
    50    25    47 1   
    51    26    48 1   
@<TRIPOS>SUBSTRUCTURE
     1 86K         1 TEMP              0 ****  ****    0 ROOT
