@<TRIPOS>MOLECULE
86K
   48    51     1     0     0
SMALL
No Charge or Current Charge


@<TRIPOS>ATOM
      1 C2         -29.5290     3.3630    -6.8730 c          1 86K       0.567100
      2 C3         -30.8200     3.3070    -5.9780 c3         1 86K       0.153800
      3 C5         -33.0350     2.0640    -6.2110 c3         1 86K       0.214100
      4 C6         -30.9210     0.7780    -5.6800 ca         1 86K       0.335000
      5 C7         -31.3880    -0.4150    -6.2700 ca         1 86K      -0.178000
      6 C8         -30.7300    -1.6360    -6.0410 ca         1 86K      -0.070500
      7 C11        -29.7800     0.7200    -4.8520 ca         1 86K      -0.178000
      8 C15        -26.7020     6.6070    -6.3980 ce         1 86K      -0.011200
      9 C16        -26.1430     5.2240    -6.6840 c6         1 86K      -0.059200
     10 C17        -27.2390     4.3330    -7.3130 c6         1 86K       0.096000
     11 C18        -25.8700     7.7550    -6.7270 cc         1 86K      -0.100200
     12 C19        -26.1060     8.7230    -7.6930 cd         1 86K      -0.129100
     13 C24        -22.3190     9.3020    -5.3110 ca         1 86K       0.355900
     14 C27        -24.6350     8.1340    -6.1030 ca         1 86K      -0.119800
     15 O1         -29.3560     2.5870    -7.8110 o          1 86K      -0.597100
     16 N4         -31.5850     2.0120    -5.9080 nh         1 86K      -0.808400
     17 C9         -29.5960    -1.6770    -5.2160 ca         1 86K      -0.160000
     18 C10        -29.1200    -0.4990    -4.6210 ca         1 86K      -0.070500
     19 N12        -28.5280     4.3120    -6.5520 n          1 86K      -0.416800
     20 C13        -28.8030     5.4700    -5.6460 c6         1 86K       0.146200
     21 C14        -27.9570     6.7000    -5.9260 c2         1 86K      -0.256200
     22 N20        -25.0480     9.6660    -7.6800 na         1 86K      -0.330400
     23 C22        -24.1630     9.2820    -6.6960 ca         1 86K       0.368500
     24 N23        -23.0160     9.8820    -6.3220 nb         1 86K      -0.681000
     25 C25        -22.7430     8.1270    -4.6550 ca         1 86K      -0.193000
     26 C26        -23.9430     7.5130    -5.0560 ca         1 86K      -0.029000
     27 H1         -30.5260     3.5890    -4.9590 h1         1 86K       0.066700
     28 H2         -31.4710     4.1120    -6.3440 h1         1 86K       0.066700
     29 H3         -33.2090     1.9350    -7.2870 h1         1 86K       0.038700
     30 H4         -33.5720     1.2740    -5.6690 h1         1 86K       0.038700
     31 H5         -33.4640     3.0260    -5.9000 h1         1 86K       0.038700
     32 H6         -32.2570    -0.4020    -6.9210 ha         1 86K       0.108000
     33 H7         -31.0990    -2.5490    -6.5060 ha         1 86K       0.106000
     34 H8         -29.4040     1.6180    -4.3730 ha         1 86K       0.108000
     35 H9         -25.7860     4.7710    -5.7500 hc         1 86K       0.057700
     36 H10        -25.2790     5.2850    -7.3600 hc         1 86K       0.057700
     37 H11        -27.4450     4.6930    -8.3310 h1         1 86K       0.062700
     38 H12        -26.8510     3.3080    -7.4040 h1         1 86K       0.062700
     39 H13        -26.9430     8.8030    -8.3830 h4         1 86K       0.218000
     40 H14        -21.3930     9.7960    -5.0170 h4         1 86K       0.021100
     41 H15        -29.0860    -2.6220    -5.0390 ha         1 86K       0.111000
     42 H16        -28.2420    -0.5300    -3.9780 ha         1 86K       0.106000
     43 H17        -29.8590     5.7610    -5.7320 h1         1 86K       0.047700
     44 H18        -28.6380     5.1500    -4.6070 h1         1 86K       0.047700
     45 H19        -28.4160     7.6700    -5.7310 ha         1 86K       0.182000
     46 H20        -24.9460    10.4810    -8.2730 hn         1 86K       0.365000
     47 H21        -22.1460     7.7070    -3.8510 ha         1 86K       0.122000
     48 H22        -24.3120     6.6080    -4.5790 ha         1 86K       0.120000
@<TRIPOS>BOND
     1     1     2 1   
     2     1    15 2   
     3     1    19 1   
     4     2    16 1   
     5     2    27 1   
     6     2    28 1   
     7     3    16 1   
     8     3    29 1   
     9     3    30 1   
    10     3    31 1   
    11     4     5 ar  
    12     4     7 ar  
    13     4    16 1   
    14     5     6 ar  
    15     5    32 1   
    16     6    17 ar  
    17     6    33 1   
    18     7    18 ar  
    19     7    34 1   
    20     8     9 1   
    21     8    11 1   
    22     8    21 2   
    23     9    10 1   
    24     9    35 1   
    25     9    36 1   
    26    10    19 1   
    27    10    37 1   
    28    10    38 1   
    29    11    12 2   
    30    11    14 1   
    31    12    22 1   
    32    12    39 1   
    33    13    24 ar  
    34    13    25 ar  
    35    13    40 1   
    36    14    23 ar  
    37    14    26 ar  
    38    17    18 ar  
    39    17    41 1   
    40    18    42 1   
    41    19    20 1   
    42    20    21 1   
    43    20    43 1   
    44    20    44 1   
    45    21    45 1   
    46    22    23 1   
    47    22    46 1   
    48    23    24 ar  
    49    25    26 ar  
    50    25    47 1   
    51    26    48 1   
@<TRIPOS>SUBSTRUCTURE
     1 86K         1 TEMP              0 ****  ****    0 ROOT
