@<TRIPOS>MOLECULE
86L
   27    27     1     0     0
SMALL
abcg2


@<TRIPOS>ATOM
      1 CL          -0.3150    -2.3200    -0.4700 cl         1 86L      -0.192000
      2 C9           0.3190    -0.7670    -0.0350 ca         1 86L       0.072000
      3 C8           1.6860    -0.5790     0.0130 ca         1 86L      -0.043000
      4 C6           2.2170     0.6590     0.3660 ca         1 86L      -0.121300
      5 C7           3.7090     0.8570     0.4440 c3         1 86L       0.204100
      6 N            4.3770     0.3180    -0.7290 n8         1 86L      -0.998200
      7 C5           1.3320     1.6880     0.6520 ca         1 86L      -0.070000
      8 C4          -0.0450     1.5030     0.6030 ca         1 86L      -0.199000
      9 C3          -0.5800     0.2660     0.2590 ca         1 86L       0.162100
     10 O           -1.8840    -0.0340     0.2000 os         1 86L      -0.339100
     11 C1          -2.8740     1.0010     0.2440 c3         1 86L       0.180300
     12 C2          -2.8990     1.7820    -1.0590 c3         1 86L      -0.107600
     13 C           -4.1910     0.3060     0.5230 c3         1 86L      -0.107600
     14 H1           2.3480    -1.4000    -0.2320 ha         1 86L       0.144000
     15 H2           3.9100     1.9210     0.6260 h1         1 86L       0.033200
     16 H3           4.0930     0.3250     1.3190 h1         1 86L       0.033200
     17 H4           4.1620     0.8930    -1.5340 hn         1 86L       0.396000
     18 H5           5.3790     0.3790    -0.6020 hn         1 86L       0.396000
     19 H7           1.7130     2.6660     0.9200 ha         1 86L       0.109000
     20 H8          -0.6890     2.3410     0.8310 ha         1 86L       0.118000
     21 H9          -2.6600     1.6800     1.0780 h1         1 86L       0.040700
     22 H10         -3.1300     1.1230    -1.8980 hc         1 86L       0.048033
     23 H11         -3.6690     2.5520    -1.0110 hc         1 86L       0.048033
     24 H12         -1.9500     2.2780    -1.2640 hc         1 86L       0.048033
     25 H13         -4.1650    -0.2290     1.4720 hc         1 86L       0.048033
     26 H14         -4.9920     1.0430     0.5780 hc         1 86L       0.048033
     27 H15         -4.4390    -0.4030    -0.2690 hc         1 86L       0.048033
@<TRIPOS>BOND
     1     1     2 1   
     2     2     3 ar  
     3     2     9 ar  
     4     3     4 ar  
     5     3    14 1   
     6     4     5 1   
     7     4     7 ar  
     8     5     6 1   
     9     5    15 1   
    10     5    16 1   
    11     6    17 1   
    12     6    18 1   
    13     7     8 ar  
    14     7    19 1   
    15     8     9 ar  
    16     8    20 1   
    17     9    10 1   
    18    10    11 1   
    19    11    12 1   
    20    11    13 1   
    21    11    21 1   
    22    12    22 1   
    23    12    23 1   
    24    12    24 1   
    25    13    25 1   
    26    13    26 1   
    27    13    27 1   
@<TRIPOS>SUBSTRUCTURE
     1 86L         1 TEMP              0 ****  ****    0 ROOT
