@<TRIPOS>MOLECULE
86L
   27    27     1     0     0
SMALL
No Charge or Current Charge


@<TRIPOS>ATOM
      1 Cl          -0.3680    -2.5040    -0.2400 cl         1 86L      -0.192000
      2 C9           0.2930    -0.9010     0.0940 ca         1 86L       0.072000
      3 C8           1.6880    -0.7370     0.1380 ca         1 86L      -0.043000
      4 C6           2.2490     0.5270     0.4020 ca         1 86L      -0.121300
      5 C7           3.7600     0.6960     0.4540 c3         1 86L       0.204100
      6 N            4.3360     0.7310    -0.9010 n8         1 86L      -0.998200
      7 C5           1.3990     1.6260     0.6250 ca         1 86L      -0.070000
      8 C4           0.0020     1.4680     0.5830 ca         1 86L      -0.199000
      9 C3          -0.5630     0.2010     0.3100 ca         1 86L       0.162100
     10 O           -1.9330    -0.0070     0.2660 os         1 86L      -0.339100
     11 C1          -2.9030     1.0560     0.2400 c3         1 86L       0.180300
     12 C2          -2.8640     1.7250    -1.1530 c3         1 86L      -0.107600
     13 C           -4.2700     0.4100     0.5340 c3         1 86L      -0.107600
     14 H1           2.3340    -1.5940    -0.0360 ha         1 86L       0.144000
     15 H2           4.0170     1.6290     0.9740 h1         1 86L       0.033200
     16 H3           4.2090    -0.1400     1.0090 h1         1 86L       0.033200
     17 H4           3.9570     1.5480    -1.3940 hn         1 86L       0.396000
     18 H5           5.3400     0.9340    -0.8290 hn         1 86L       0.396000
     19 H7           1.8210     2.6070     0.8350 ha         1 86L       0.109000
     20 H8          -0.6200     2.3370     0.7690 ha         1 86L       0.118000
     21 H9          -2.7040     1.7990     1.0230 h1         1 86L       0.040700
     22 H10         -3.0390     0.9860    -1.9440 hc         1 86L       0.048033
     23 H11         -3.6400     2.4960    -1.2270 hc         1 86L       0.048033
     24 H12         -1.8970     2.2050    -1.3380 hc         1 86L       0.048033
     25 H13         -4.2640    -0.0650     1.5220 hc         1 86L       0.048033
     26 H14         -5.0620     1.1680     0.5260 hc         1 86L       0.048033
     27 H15         -4.5130    -0.3510    -0.2160 hc         1 86L       0.048033
@<TRIPOS>BOND
     1     1     2 1   
     2     2     3 ar  
     3     2     9 ar  
     4     3     4 ar  
     5     3    14 1   
     6     4     5 1   
     7     4     7 ar  
     8     5     6 1   
     9     5    15 1   
    10     5    16 1   
    11     6    17 1   
    12     6    18 1   
    13     7     8 ar  
    14     7    19 1   
    15     8     9 ar  
    16     8    20 1   
    17     9    10 1   
    18    10    11 1   
    19    11    12 1   
    20    11    13 1   
    21    11    21 1   
    22    12    22 1   
    23    12    23 1   
    24    12    24 1   
    25    13    25 1   
    26    13    26 1   
    27    13    27 1   
@<TRIPOS>SUBSTRUCTURE
     1 86L         1 TEMP              0 ****  ****    0 ROOT
