@<TRIPOS>MOLECULE
86P
   79    84     1     0     0
SMALL
No Charge or Current Charge


@<TRIPOS>ATOM
      1 C2A         -9.6650     0.5250    -0.8670 cc         1 86P       0.674800
      2 C4A         -7.4870     0.2590    -0.3280 cd         1 86P       0.081400
      3 C5A         -7.7230    -0.9990     0.1580 cc         1 86P       0.120000
      4 C6A         -9.0920    -1.5720     0.1340 c          1 86P       0.518000
      5 N2A        -10.6660     1.2340    -1.3590 nv         1 86P      -1.070700
      6 O3A         -1.3660     1.0640     1.2450 os         1 86P      -0.682800
      7 O6A         -9.4220    -2.6810     0.5360 o          1 86P      -0.546000
      8 O1A         -1.1300     0.7180     3.7610 o          1 86P      -0.863250
      9 PA          -2.0920     0.9150     2.6340 p5         1 86P       1.450300
     10 PB          -0.9450    -0.3150     0.6010 p5         1 86P       1.521800
     11 PC           0.3750    -0.5390    -1.6840 p5         1 86P       1.521800
     12 PG           2.6550    -0.4870    -3.0300 p5         1 86P       1.450300
     13 C1D         -5.4150     1.6980    -0.5720 c5         1 86P       0.324800
     14 C1E          5.4320     1.1100     0.4250 c5         1 86P       0.324800
     15 N1A         -9.9920    -0.7050    -0.4070 ns         1 86P      -0.460400
     16 N1B          9.6890    -1.3060     2.0970 ns         1 86P      -0.460400
     17 O1B         -0.2050    -1.1990     1.5530 o          1 86P      -0.878500
     18 O1C          0.6460    -1.9700    -1.3510 o          1 86P      -0.878500
     19 O1G          3.5630    -1.4680    -2.3640 o          1 86P      -0.863250
     20 C2B          9.3870     0.0130     2.0630 cc         1 86P       0.674800
     21 C2D         -6.0270     3.0540    -0.0830 c5         1 86P       0.062300
     22 C2E          6.2620     2.2060    -0.3240 c5         1 86P       0.062300
     23 N2B         10.3140     0.8240     2.5420 nv         1 86P      -1.070700
     24 O2A         -3.2190    -0.0630     2.6770 o          1 86P      -0.863250
     25 O2B         -2.1100    -0.9850    -0.0520 o          1 86P      -0.878500
     26 O2C         -0.6640    -0.3510    -2.7430 o          1 86P      -0.878500
     27 O2D         -7.0740     3.5540    -0.9340 oh         1 86P      -0.715500
     28 O2E          7.1640     2.9340     0.5300 oh         1 86P      -0.715500
     29 O2G          1.9840    -1.0680    -4.2310 o          1 86P      -0.863250
     30 C3D         -4.7600     3.9500    -0.0850 c5         1 86P       0.092300
     31 C3E          5.1150     3.0870    -0.8880 c5         1 86P       0.092300
     32 N3A         -8.4740     1.0870    -0.8730 nd         1 86P      -0.666100
     33 N3B          8.2810     0.5680     1.6160 nd         1 86P      -0.666100
     34 O3B          0.0530     0.3460    -0.4220 os         1 86P      -0.699800
     35 O3C          1.6830     0.2630    -2.0450 os         1 86P      -0.682800
     36 O3D         -4.4170     4.3460    -1.4200 oh         1 86P      -0.717000
     37 O3E          4.5500     3.9100     0.1410 oh         1 86P      -0.717000
     38 C4B          7.3600    -0.3720     1.1420 cd         1 86P       0.081400
     39 C4D         -3.7410     2.9470     0.5570 c5         1 86P       0.156800
     40 C4E          4.1540     1.9550    -1.3900 c5         1 86P       0.156800
     41 O4D         -4.0600     1.6740    -0.0680 os         1 86P      -0.391500
     42 O4E          4.2130     0.9490    -0.3390 os         1 86P      -0.391500
     43 C5B          7.5760    -1.7240     1.1430 cc         1 86P       0.120000
     44 C5D         -3.8930     2.8360     2.1080 c3         1 86P       0.218100
     45 C5E          4.6060     1.3370    -2.7540 c3         1 86P       0.218100
     46 O5D         -2.6690     2.4220     2.7360 os         1 86P      -0.538900
     47 O5E          3.4990     0.8070    -3.5050 os         1 86P      -0.538900
     48 C6B          8.8500    -2.2840     1.6580 c          1 86P       0.518000
     49 O6B          9.1560    -3.4690     1.7050 o          1 86P      -0.546000
     50 N7A         -6.5590    -1.5680     0.6180 nc         1 86P      -0.590500
     51 N7B          6.4880    -2.3890     0.6280 nc         1 86P      -0.590500
     52 C8A         -5.6060    -0.6500     0.4110 cd         1 86P       0.485400
     53 C8B          5.6040    -1.4360     0.3100 cd         1 86P       0.485400
     54 N9A         -6.1410     0.4990    -0.1700 na         1 86P      -0.182000
     55 N9B          6.1080    -0.1700     0.6080 na         1 86P      -0.182000
     56 H1         -11.5940     1.0240    -1.0120 hn         1 86P       0.477000
     57 H2         -10.4630     2.2130    -1.5140 hn         1 86P       0.477000
     58 H4          -5.3820     1.6790    -1.6680 h2         1 86P       0.080200
     59 H6         -10.9440    -1.0230    -0.4800 hn         1 86P       0.291000
     60 H10         -6.4080     2.9370     0.9420 h1         1 86P       0.080700
     61 H11          6.8260     1.7430    -1.1470 h1         1 86P       0.080700
     62 H12         10.9540     0.4380     3.2250 hn         1 86P       0.477000
     63 H13         10.0020     1.7710     2.7170 hn         1 86P       0.477000
     64 H15         -7.7230     2.8010    -1.0140 ho         1 86P       0.489500
     65 H16          7.7080     2.2340     0.9890 ho         1 86P       0.489500
     66 H17         -4.9010     4.8390     0.5460 h1         1 86P       0.045700
     67 H18          5.4670     3.7140    -1.7190 h1         1 86P       0.045700
     68 H19         -5.2890     4.4490    -1.8720 ho         1 86P       0.488500
     69 H20          5.3200     4.1400     0.7160 ho         1 86P       0.488500
     70 H21         -2.7060     3.2290     0.3220 h1         1 86P       0.093700
     71 H22          3.1280     2.3310    -1.4910 h1         1 86P       0.093700
     72 H23         -4.1700     3.8230     2.5000 h1         1 86P       0.000950
     73 H24         -4.7130     2.1500     2.3580 h1         1 86P       0.000950
     74 H25          5.0830     2.1250    -3.3500 h1         1 86P       0.000950
     75 H26          5.3650     0.5620    -2.5820 h1         1 86P       0.000950
     76 H27         -4.5500    -0.7480     0.6370 h5         1 86P       0.165100
     77 H28          4.6140    -1.5810    -0.1070 h5         1 86P       0.165100
     78 H5           5.1730     1.4630     1.4310 h2         1 86P       0.080200
     79 H7          10.5860    -1.5980     2.4490 hn         1 86P       0.291000
@<TRIPOS>BOND
     1     1     5 1   
     2     1    15 1   
     3     1    32 2   
     4     2     3 2   
     5     2    32 1   
     6     2    54 1   
     7     3     4 1   
     8     3    50 1   
     9     4     7 2   
    10     4    15 1   
    11     5    56 1   
    12     5    57 1   
    13     6     9 1   
    14     6    10 1   
    15     8     9 1   
    16     9    24 1   
    17     9    46 1   
    18    10    17 1   
    19    10    25 1   
    20    10    34 1   
    21    11    18 1   
    22    11    26 1   
    23    11    34 1   
    24    11    35 1   
    25    12    19 1   
    26    12    29 1   
    27    12    35 1   
    28    12    47 1   
    29    13    21 1   
    30    13    41 1   
    31    13    54 1   
    32    13    58 1   
    33    14    22 1   
    34    14    42 1   
    35    14    55 1   
    36    14    78 1   
    37    15    59 1   
    38    16    20 1   
    39    16    48 1   
    40    16    79 1   
    41    20    23 1   
    42    20    33 2   
    43    21    27 1   
    44    21    30 1   
    45    21    60 1   
    46    22    28 1   
    47    22    31 1   
    48    22    61 1   
    49    23    62 1   
    50    23    63 1   
    51    27    64 1   
    52    28    65 1   
    53    30    36 1   
    54    30    39 1   
    55    30    66 1   
    56    31    37 1   
    57    31    40 1   
    58    31    67 1   
    59    33    38 1   
    60    36    68 1   
    61    37    69 1   
    62    38    43 2   
    63    38    55 1   
    64    39    41 1   
    65    39    44 1   
    66    39    70 1   
    67    40    42 1   
    68    40    45 1   
    69    40    71 1   
    70    43    48 1   
    71    43    51 1   
    72    44    46 1   
    73    44    72 1   
    74    44    73 1   
    75    45    47 1   
    76    45    74 1   
    77    45    75 1   
    78    48    49 2   
    79    50    52 2   
    80    51    53 2   
    81    52    54 1   
    82    52    76 1   
    83    53    55 1   
    84    53    77 1   
@<TRIPOS>SUBSTRUCTURE
     1 86P         1 TEMP              0 ****  ****    0 ROOT
