@<TRIPOS>MOLECULE
86P
   79    84     1     0     0
SMALL
abcg2


@<TRIPOS>ATOM
      1 C2A        -10.6850     0.5240    -0.6360 cc         1 86P       0.674800
      2 C4A         -8.5560     0.4590    -0.0410 cd         1 86P       0.081400
      3 C5A         -8.4010    -0.8980    -0.2600 cc         1 86P       0.120000
      4 C6A         -9.5210    -1.6490    -0.7180 c          1 86P       0.518000
      5 N2A        -11.8440     1.1480    -0.8910 nv         1 86P      -1.070700
      6 O3A         -1.6420     0.5710    -0.6670 os         1 86P      -0.682800
      7 O6A         -9.5940    -2.8420    -0.9660 o          1 86P      -0.546000
      8 O1A         -1.2180     0.6730     1.8770 o          1 86P      -0.863250
      9 PA          -2.2820     0.5190     0.8360 p5         1 86P       1.450300
     10 PB          -1.0670    -0.7590    -1.4580 p5         1 86P       1.521800
     11 PC           0.9540    -0.4730    -3.5110 p5         1 86P       1.521800
     12 PG           3.8480    -0.5280    -3.5270 p5         1 86P       1.450300
     13 C1D         -7.0110     2.2430     0.7720 c5         1 86P       0.324800
     14 C1E          7.3070     1.4880    -0.4640 c5         1 86P       0.324800
     15 N1A        -10.6390    -0.8200    -0.8750 ns         1 86P      -0.460400
     16 N1B          7.4120    -0.1180     4.3020 ns         1 86P      -0.460400
     17 O1B         -0.5590    -1.7460    -0.4590 o          1 86P      -0.878500
     18 O1C          1.0200    -1.9650    -3.5380 o          1 86P      -0.878500
     19 O1G          4.3200    -1.5000    -2.4870 o          1 86P      -0.863250
     20 C2B          8.0120     0.9760     3.7460 cc         1 86P       0.674800
     21 C2D         -6.9240     2.4460     2.2850 c5         1 86P       0.062300
     22 C2E          8.4130     0.9640    -1.3820 c5         1 86P       0.062300
     23 N2B          8.7820     1.7220     4.5520 nv         1 86P      -1.070700
     24 O2A         -3.2920    -0.5840     0.9530 o          1 86P      -0.863250
     25 O2B         -2.0480    -1.1520    -2.5140 o          1 86P      -0.878500
     26 O2C          0.4350     0.3090    -4.6740 o          1 86P      -0.878500
     27 O2D         -8.1930     2.6970     2.8090 oh         1 86P      -0.715500
     28 O2E          9.6550     1.0950    -0.7580 oh         1 86P      -0.715500
     29 O2G          3.8260    -0.9300    -4.9680 o          1 86P      -0.863250
     30 C3D         -5.9450     3.6200     2.3690 c5         1 86P       0.092300
     31 C3E          8.2170     1.8450    -2.6200 c5         1 86P       0.092300
     32 N3A         -9.6540     1.2080    -0.2070 nd         1 86P      -0.666100
     33 N3B          7.8930     1.2900     2.4800 nd         1 86P      -0.666100
     34 O3B          0.1960     0.0400    -2.1450 os         1 86P      -0.699800
     35 O3C          2.4260     0.1430    -3.0820 os         1 86P      -0.682800
     36 O3D         -6.5850     4.8300     2.0530 oh         1 86P      -0.717000
     37 O3E          8.7530     3.1260    -2.4150 oh         1 86P      -0.717000
     38 C4B          7.1240     0.4330     1.7940 cd         1 86P       0.081400
     39 C4D         -4.9740     3.2640     1.2520 c5         1 86P       0.156800
     40 C4E          6.6990     1.9460    -2.6660 c5         1 86P       0.156800
     41 O4D         -5.7510     2.5760     0.2670 os         1 86P      -0.391500
     42 O4E          6.2640     1.8860    -1.3030 os         1 86P      -0.391500
     43 C5B          6.4670    -0.6920     2.2590 cc         1 86P       0.120000
     44 C5D         -3.8380     2.3920     1.7540 c3         1 86P       0.218100
     45 C5E          6.0840     0.8240    -3.4800 c3         1 86P       0.218100
     46 O5D         -3.0720     1.9570     0.6560 os         1 86P      -0.538900
     47 O5E          4.6830     0.8840    -3.3600 os         1 86P      -0.538900
     48 C6B          6.5940    -1.0390     3.6340 c          1 86P       0.518000
     49 O6B          6.1030    -1.9810     4.2340 o          1 86P      -0.546000
     50 N7A         -7.1160    -1.2890     0.0150 nc         1 86P      -0.590500
     51 N7B          5.7660    -1.2960     1.2480 nc         1 86P      -0.590500
     52 C8A         -6.5100    -0.2050     0.3950 cd         1 86P       0.485400
     53 C8B          5.9940    -0.5650     0.1990 cd         1 86P       0.485400
     54 N9A         -7.3380     0.8930     0.3820 na         1 86P      -0.182000
     55 N9B          6.8170     0.5040     0.4710 na         1 86P      -0.182000
     56 H1         -12.6940     0.6280    -1.0230 hn         1 86P       0.477000
     57 H2         -11.9420     2.0990    -0.5800 hn         1 86P       0.477000
     58 H4          -7.7970     2.8820     0.3540 h2         1 86P       0.080200
     59 H6         -11.4810    -1.2780    -1.2020 hn         1 86P       0.291000
     60 H10         -6.4660     1.5620     2.7460 h1         1 86P       0.080700
     61 H11          8.2030    -0.0810    -1.6450 h1         1 86P       0.080700
     62 H12          8.7190     1.6360     5.5510 hn         1 86P       0.477000
     63 H13          9.1000     2.6090     4.1990 hn         1 86P       0.477000
     64 H15         -8.1750     2.5290     3.7560 ho         1 86P       0.489500
     65 H16         10.2830     0.5100    -1.1930 ho         1 86P       0.489500
     66 H17         -5.4440     3.6680     3.3450 h1         1 86P       0.045700
     67 H18          8.6230     1.3740    -3.5250 h1         1 86P       0.045700
     68 H19         -7.4110     4.8640     2.5500 ho         1 86P       0.488500
     69 H20          9.6380     3.0220    -2.0470 ho         1 86P       0.488500
     70 H21         -4.5610     4.1650     0.7880 h1         1 86P       0.093700
     71 H22          6.3820     2.9070    -3.0790 h1         1 86P       0.093700
     72 H23         -3.2310     2.9830     2.4490 h1         1 86P       0.000950
     73 H24         -4.2400     1.5450     2.3250 h1         1 86P       0.000950
     74 H25          6.3950     0.9490    -4.5240 h1         1 86P       0.000950
     75 H26          6.4730    -0.1450    -3.1440 h1         1 86P       0.000950
     76 H27         -5.4620    -0.1430     0.6650 h5         1 86P       0.165100
     77 H28          5.5720    -0.7390    -0.7840 h5         1 86P       0.165100
     78 H5           7.6850     2.3230     0.1360 h2         1 86P       0.080200
     79 H7           7.5630    -0.2990     5.2860 hn         1 86P       0.291000
@<TRIPOS>BOND
     1     1     5 1   
     2     1    15 1   
     3     1    32 2   
     4     2     3 2   
     5     2    32 1   
     6     2    54 1   
     7     3     4 1   
     8     3    50 1   
     9     4     7 2   
    10     4    15 1   
    11     5    56 1   
    12     5    57 1   
    13     6     9 1   
    14     6    10 1   
    15     8     9 1   
    16     9    24 1   
    17     9    46 1   
    18    10    17 1   
    19    10    25 1   
    20    10    34 1   
    21    11    18 1   
    22    11    26 1   
    23    11    34 1   
    24    11    35 1   
    25    12    19 1   
    26    12    29 1   
    27    12    35 1   
    28    12    47 1   
    29    13    21 1   
    30    13    41 1   
    31    13    54 1   
    32    13    58 1   
    33    14    22 1   
    34    14    42 1   
    35    14    55 1   
    36    14    78 1   
    37    15    59 1   
    38    16    20 1   
    39    16    48 1   
    40    16    79 1   
    41    20    23 1   
    42    20    33 2   
    43    21    27 1   
    44    21    30 1   
    45    21    60 1   
    46    22    28 1   
    47    22    31 1   
    48    22    61 1   
    49    23    62 1   
    50    23    63 1   
    51    27    64 1   
    52    28    65 1   
    53    30    36 1   
    54    30    39 1   
    55    30    66 1   
    56    31    37 1   
    57    31    40 1   
    58    31    67 1   
    59    33    38 1   
    60    36    68 1   
    61    37    69 1   
    62    38    43 2   
    63    38    55 1   
    64    39    41 1   
    65    39    44 1   
    66    39    70 1   
    67    40    42 1   
    68    40    45 1   
    69    40    71 1   
    70    43    48 1   
    71    43    51 1   
    72    44    46 1   
    73    44    72 1   
    74    44    73 1   
    75    45    47 1   
    76    45    74 1   
    77    45    75 1   
    78    48    49 2   
    79    50    52 2   
    80    51    53 2   
    81    52    54 1   
    82    52    76 1   
    83    53    55 1   
    84    53    77 1   
@<TRIPOS>SUBSTRUCTURE
     1 86P         1 TEMP              0 ****  ****    0 ROOT
