@<TRIPOS>MOLECULE
86Q
   26    28     1     0     0
SMALL
No Charge or Current Charge


@<TRIPOS>ATOM
      1 C4          25.4880    30.2160    12.3270 ca         1 86Q      -0.191000
      2 C14         24.4490    29.2970    12.0690 ca         1 86Q      -0.030300
      3 C5          23.5320    28.8560    13.2060 c6         1 86Q      -0.030100
      4 C6          22.1560    28.4030    12.6980 c6         1 86Q      -0.026100
      5 C11         22.2510    27.5820    11.4140 ca         1 86Q      -0.064300
      6 C7          21.2280    26.6590    11.1220 ca         1 86Q      -0.120000
      7 C8          21.2320    25.9500     9.9120 ca         1 86Q      -0.098000
      8 C9          22.2520    26.1740     8.9770 ca         1 86Q      -0.120000
      9 C10         23.2740    27.0970     9.2540 ca         1 86Q      -0.070000
     10 C12         23.2980    27.8050    10.4830 ca         1 86Q      -0.130500
     11 C13         24.3410    28.7320    10.7660 ca         1 86Q       0.304500
     12 N1          25.2550    29.0810     9.8150 nb         1 86Q      -0.283000
     13 N2          26.2470    29.9640    10.0670 nb         1 86Q      -0.395000
     14 C3          26.3630    30.5230    11.2810 ca         1 86Q       0.538900
     15 N3          27.3930    31.3890    11.4160 nv         1 86Q      -1.052900
     16 H1          25.6200    30.6600    13.3090 ha         1 86Q       0.125000
     17 H2          24.0120    28.0230    13.7380 hc         1 86Q       0.055700
     18 H3          21.5370    29.2890    12.5010 hc         1 86Q       0.052200
     19 H4          20.4180    26.5000    11.8300 ha         1 86Q       0.109000
     20 H5          20.4390    25.2380     9.6940 ha         1 86Q       0.113000
     21 H6          22.2530    25.6310     8.0340 ha         1 86Q       0.115000
     22 H7          24.0520    27.2430     8.5080 ha         1 86Q       0.137000
     23 H8          27.8320    31.7140    10.5590 hn         1 86Q       0.476000
     24 H9          27.3770    32.0410    12.1950 hn         1 86Q       0.476000
     25 H10         23.4090    29.6630    13.9420 hc         1 86Q       0.055700
     26 H11         21.6410    27.8370    13.4860 hc         1 86Q       0.052200
@<TRIPOS>BOND
     1     1     2 ar  
     2     1    14 ar  
     3     1    16 1   
     4     2     3 1   
     5     2    11 ar  
     6     3     4 1   
     7     3    17 1   
     8     3    25 1   
     9     4     5 1   
    10     4    18 1   
    11     4    26 1   
    12     5     6 ar  
    13     5    10 ar  
    14     6     7 ar  
    15     6    19 1   
    16     7     8 ar  
    17     7    20 1   
    18     8     9 ar  
    19     8    21 1   
    20     9    10 ar  
    21     9    22 1   
    22    10    11 1   
    23    11    12 ar  
    24    12    13 ar  
    25    13    14 ar  
    26    14    15 1   
    27    15    23 1   
    28    15    24 1   
@<TRIPOS>SUBSTRUCTURE
     1 86Q         1 TEMP              0 ****  ****    0 ROOT
