@<TRIPOS>MOLECULE
86Q
   26    28     1     0     0
SMALL
bcc


@<TRIPOS>ATOM
      1 C4          25.4750    30.2060    12.3070 ca         1 86Q      -0.274300
      2 C14         24.4410    29.3370    12.0930 ca         1 86Q      -0.095600
      3 C5          23.4800    28.9820    13.1860 c6         1 86Q      -0.030100
      4 C6          22.1920    28.2880    12.7330 c6         1 86Q      -0.026100
      5 C11         22.2600    27.5670    11.4130 ca         1 86Q      -0.064300
      6 C7          21.2480    26.6640    11.0880 ca         1 86Q      -0.138000
      7 C8          21.2400    25.9980     9.8740 ca         1 86Q      -0.116000
      8 C9          22.2610    26.2310     8.9580 ca         1 86Q      -0.138000
      9 C10         23.2690    27.1250     9.2660 ca         1 86Q      -0.088000
     10 C12         23.2810    27.8020    10.4900 ca         1 86Q      -0.130500
     11 C13         24.3470    28.7640    10.8090 ca         1 86Q       0.369800
     12 N1          25.2120    29.0620     9.8580 nb         1 86Q      -0.283000
     13 N2          26.2000    29.8980    10.0550 nb         1 86Q      -0.395000
     14 C3          26.3580    30.4700    11.2460 ca         1 86Q       0.604200
     15 N3          27.4320    31.2850    11.4030 nv         1 86Q      -0.942500
     16 H1          25.6140    30.6850    13.2700 ha         1 86Q       0.143000
     17 H2          24.0100    28.3550    13.9080 hc         1 86Q       0.055700
     18 H3          21.3780    29.0150    12.6870 hc         1 86Q       0.052200
     19 H4          20.4560    26.4840    11.8060 ha         1 86Q       0.127000
     20 H5          20.4460    25.3000     9.6440 ha         1 86Q       0.131000
     21 H6          22.2700    25.7130     8.0080 ha         1 86Q       0.133000
     22 H7          24.0640    27.3050     8.5550 ha         1 86Q       0.155000
     23 H8          27.8770    31.6150    10.5610 hn         1 86Q       0.420800
     24 H9          27.4150    31.9510    12.1580 hn         1 86Q       0.420800
     25 H10         23.2250    29.8960    13.7260 hc         1 86Q       0.055700
     26 H11         21.8970    27.5700    13.5000 hc         1 86Q       0.052200
@<TRIPOS>BOND
     1     1     2 ar  
     2     1    14 ar  
     3     1    16 1   
     4     2     3 1   
     5     2    11 ar  
     6     3     4 1   
     7     3    17 1   
     8     3    25 1   
     9     4     5 1   
    10     4    18 1   
    11     4    26 1   
    12     5     6 ar  
    13     5    10 ar  
    14     6     7 ar  
    15     6    19 1   
    16     7     8 ar  
    17     7    20 1   
    18     8     9 ar  
    19     8    21 1   
    20     9    10 ar  
    21     9    22 1   
    22    10    11 1   
    23    11    12 ar  
    24    12    13 ar  
    25    13    14 ar  
    26    14    15 1   
    27    15    23 1   
    28    15    24 1   
@<TRIPOS>SUBSTRUCTURE
     1 86Q         1 TEMP              0 ****  ****    0 ROOT
