@<TRIPOS>MOLECULE
86S
   71    76     1     0     0
SMALL
bcc


@<TRIPOS>ATOM
      1 PA           1.5630    -1.8800    -0.6960 p5         1 86S       1.452800
      2 O1A          1.4600    -3.0260    -1.6510 o          1 86S      -0.846500
      3 O2A          2.3900    -2.0050     0.5480 o          1 86S      -0.846500
      4 C6A          8.5970    -0.8450     2.4130 c          1 86S       0.662500
      5 N1A          9.4720     0.2370     2.2510 ns         1 86S      -0.528400
      6 C2A          9.2170     1.3810     1.5490 cc         1 86S       0.701800
      7 N2A         10.1730     2.3200     1.5490 nv         1 86S      -0.950800
      8 N3A          8.0880     1.5960     0.9200 nd         1 86S      -0.683600
      9 C4A          7.2140     0.5850     1.0420 cd         1 86S       0.082800
     10 C5A          7.3690    -0.6030     1.7320 cc         1 86S       0.163800
     11 N7A          6.2340    -1.3640     1.6440 nc         1 86S      -0.619000
     12 C8A          5.4140    -0.6590     0.9230 cd         1 86S       0.454400
     13 N9A          5.9640     0.5320     0.5100 na         1 86S      -0.217900
     14 C1D          5.3090     1.6120    -0.2310 c5         1 86S       0.262300
     15 O4D          4.0150     1.2230    -0.5620 os         1 86S      -0.351100
     16 C2D          6.0200     1.9090    -1.5490 c5         1 86S       0.068100
     17 O2D          5.6930     3.2230    -1.9100 oh         1 86S      -0.587800
     18 C3D          5.3450     0.9000    -2.4820 c5         1 86S       0.060600
     19 O3D          5.3370     1.2970    -3.8260 oh         1 86S      -0.575300
     20 C4D          3.9180     0.8500    -1.9360 c5         1 86S       0.115100
     21 C5D          3.2980    -0.5200    -2.0830 c3         1 86S       0.207400
     22 O5D          2.0050    -0.5240    -1.5210 os         1 86S      -0.533200
     23 O3A          0.0740    -1.2930    -0.3370 os         1 86S      -0.684800
     24 PG          -0.8440    -1.8410     0.9080 p5         1 86S       1.452800
     25 O1G         -0.6220    -3.3050     1.1210 o          1 86S      -0.846500
     26 O2G         -0.7640    -0.8850     2.0570 o          1 86S      -0.846500
     27 O5E         -2.2640    -1.6140     0.1000 os         1 86S      -0.533200
     28 C5E         -3.4620    -1.7750     0.8270 c3         1 86S       0.207400
     29 C4E         -4.0040    -0.4560     1.3270 c5         1 86S       0.115100
     30 O4E         -4.2770     0.4160     0.2270 os         1 86S      -0.351100
     31 C3E         -5.3360    -0.5920     2.0580 c5         1 86S       0.060600
     32 O3E         -5.1190    -0.8830     3.4100 oh         1 86S      -0.575300
     33 C2E         -5.9690     0.7820     1.8130 c5         1 86S       0.068100
     34 O2E         -5.4040     1.7540     2.6490 oh         1 86S      -0.587800
     35 C1E         -5.4980     1.0660     0.3880 c5         1 86S       0.262300
     36 N9B         -6.4470     0.5530    -0.5980 na         1 86S      -0.217900
     37 C4B         -7.6490     1.1160    -0.8860 cc         1 86S       0.082800
     38 N3B         -8.1580     2.2210    -0.3220 nc         1 86S      -0.683600
     39 C2B         -9.3380     2.5400    -0.7910 cd         1 86S       0.701800
     40 N2B         -9.9920     3.6020    -0.2980 nv         1 86S      -0.950800
     41 N1B         -9.9760     1.8140    -1.7560 ns         1 86S      -0.528400
     42 C6B         -9.4890     0.6570    -2.3800 c          1 86S       0.662500
     43 O6B        -10.1480     0.0890    -3.2350 o          1 86S      -0.619000
     44 C5B         -8.2040     0.3160    -1.8670 cd         1 86S       0.163800
     45 N7B         -7.3590    -0.7150    -2.1830 nd         1 86S      -0.619000
     46 C8B         -6.3270    -0.5430    -1.4140 cc         1 86S       0.454400
     47 H3          11.1100     2.1110     1.8480 hn         1 86S       0.434300
     48 H4          10.0620     3.1000     0.9240 hn         1 86S       0.434300
     49 H6           5.2800     2.4900     0.4190 h2         1 86S       0.105700
     50 H7           7.1030     1.7630    -1.4830 h1         1 86S       0.055700
     51 H8           5.6620     3.2620    -2.8740 ho         1 86S       0.418500
     52 H9           5.8280    -0.0780    -2.3600 h1         1 86S       0.052700
     53 H10          6.1600     1.0140    -4.2370 ho         1 86S       0.393500
     54 H11          3.2960     1.5920    -2.4520 h1         1 86S       0.108700
     55 H12          3.2570    -0.7620    -3.1510 h1         1 86S       0.017200
     56 H13          3.9560    -1.2630    -1.6160 h1         1 86S       0.017200
     57 H15         -4.1920    -2.2520     0.1660 h1         1 86S       0.017200
     58 H16         -3.3440    -2.4450     1.6880 h1         1 86S       0.017200
     59 H17         -3.2640     0.0160     1.9820 h1         1 86S       0.108700
     60 H18         -5.9520    -1.3620     1.5750 h1         1 86S       0.052700
     61 H19         -5.9380    -1.2160     3.7910 ho         1 86S       0.393500
     62 H20         -7.0630     0.7640     1.8900 h1         1 86S       0.055700
     63 H21         -5.2720     1.3530     3.5170 ho         1 86S       0.418500
     64 H22         -5.3890     2.1390     0.2070 h2         1 86S       0.105700
     65 H23        -10.7770     3.9970    -0.7860 hn         1 86S       0.434300
     66 H24         -9.4790     4.2270     0.3010 hn         1 86S       0.434300
     67 H25        -10.8940     2.1160    -2.0550 hn         1 86S       0.304000
     68 H26         -5.4490    -1.1690    -1.4060 h5         1 86S       0.127600
     69 H2          10.3650     0.1520     2.7200 hn         1 86S       0.304000
     70 O6A          8.9290    -1.8180     3.0690 o          1 86S      -0.619000
     71 H5           4.4000    -0.9470     0.6800 h5         1 86S       0.127600
@<TRIPOS>BOND
     1     1     2 1   
     2     1     3 1   
     3     1    22 1   
     4     1    23 1   
     5     4     5 1   
     6     4    10 1   
     7     4    70 2   
     8     5     6 1   
     9     5    69 1   
    10     6     7 1   
    11     6     8 2   
    12     7    47 1   
    13     7    48 1   
    14     8     9 1   
    15     9    10 2   
    16     9    13 1   
    17    10    11 1   
    18    11    12 2   
    19    12    13 1   
    20    12    71 1   
    21    13    14 1   
    22    14    15 1   
    23    14    16 1   
    24    14    49 1   
    25    15    20 1   
    26    16    17 1   
    27    16    18 1   
    28    16    50 1   
    29    17    51 1   
    30    18    19 1   
    31    18    20 1   
    32    18    52 1   
    33    19    53 1   
    34    20    21 1   
    35    20    54 1   
    36    21    22 1   
    37    21    55 1   
    38    21    56 1   
    39    23    24 1   
    40    24    25 1   
    41    24    26 1   
    42    24    27 1   
    43    27    28 1   
    44    28    29 1   
    45    28    57 1   
    46    28    58 1   
    47    29    30 1   
    48    29    31 1   
    49    29    59 1   
    50    30    35 1   
    51    31    32 1   
    52    31    33 1   
    53    31    60 1   
    54    32    61 1   
    55    33    34 1   
    56    33    35 1   
    57    33    62 1   
    58    34    63 1   
    59    35    36 1   
    60    35    64 1   
    61    36    37 1   
    62    36    46 1   
    63    37    38 1   
    64    37    44 2   
    65    38    39 2   
    66    39    40 1   
    67    39    41 1   
    68    40    65 1   
    69    40    66 1   
    70    41    42 1   
    71    41    67 1   
    72    42    43 2   
    73    42    44 1   
    74    44    45 1   
    75    45    46 2   
    76    46    68 1   
@<TRIPOS>SUBSTRUCTURE
     1 86S         1 TEMP              0 ****  ****    0 ROOT
