@<TRIPOS>MOLECULE
86S
   71    76     1     0     0
SMALL
No Charge or Current Charge


@<TRIPOS>ATOM
      1 PA           1.1890     3.2160    -0.8190 p5         1 86S       1.452800
      2 O1A          1.6390     2.3240     0.2900 o          1 86S      -0.846500
      3 O2A          1.0620     4.6450    -0.4020 o          1 86S      -0.846500
      4 C6A          6.3440    -1.7250     3.4230 c          1 86S       0.520000
      5 N1A          7.6960    -1.5910     3.3500 ns         1 86S      -0.461400
      6 C2A          8.3220    -0.8000     2.4500 cc         1 86S       0.701800
      7 N2A          9.6410    -0.7890     2.5130 nv         1 86S      -1.061200
      8 N3A          7.7690    -0.0500     1.5220 nd         1 86S      -0.683600
      9 C4A          6.3770    -0.1300     1.5260 cd         1 86S       0.097400
     10 C5A          5.6550    -0.9010     2.3970 cc         1 86S       0.098500
     11 N7A          4.3070    -0.7710     2.1550 nc         1 86S      -0.619000
     12 C8A          4.2110     0.0880     1.1340 cd         1 86S       0.454400
     13 N9A          5.4730     0.5030     0.7070 na         1 86S      -0.196500
     14 C1D          5.7810     1.4240    -0.3860 c5         1 86S       0.314800
     15 O4D          4.5690     2.1250    -0.7710 os         1 86S      -0.397500
     16 C2D          6.3260     0.7420    -1.6940 c5         1 86S       0.091300
     17 O2D          7.1810     1.5920    -2.4810 oh         1 86S      -0.710000
     18 C3D          4.9880     0.4980    -2.4450 c5         1 86S       0.083800
     19 O3D          5.2070     0.2380    -3.8420 oh         1 86S      -0.697500
     20 C4D          4.2860     1.8590    -2.1680 c5         1 86S       0.138300
     21 C5D          2.7620     1.8770    -2.4760 c3         1 86S       0.230600
     22 O5D          2.1970     3.1340    -2.0760 os         1 86S      -0.556400
     23 O3A         -0.0660     2.6510    -1.5840 os         1 86S      -0.684800
     24 PG          -1.4370     2.9890    -0.8860 p5         1 86S       1.452800
     25 O1G         -1.4610     2.8160     0.5960 o          1 86S      -0.846500
     26 O2G         -1.9680     4.3180    -1.3170 o          1 86S      -0.846500
     27 O5E         -2.2870     1.8250    -1.6110 os         1 86S      -0.556400
     28 C5E         -2.1800     0.4520    -1.1980 c3         1 86S       0.230600
     29 C4E         -3.0870     0.1580     0.0340 c5         1 86S       0.138300
     30 O4E         -4.4570     0.5440    -0.2200 os         1 86S      -0.397500
     31 C3E         -3.2250    -1.3490     0.3870 c5         1 86S       0.083800
     32 O3E         -2.0550    -1.9080     1.0090 oh         1 86S      -0.697500
     33 C2E         -4.4180    -1.2760     1.3860 c5         1 86S       0.091300
     34 O2E         -3.9140    -0.9090     2.6790 oh         1 86S      -0.710000
     35 C1E         -5.3090    -0.1540     0.7230 c5         1 86S       0.314800
     36 N9B         -6.5160    -0.5960     0.0240 na         1 86S      -0.196500
     37 C4B         -7.7630    -0.0300     0.1100 cc         1 86S       0.097400
     38 N3B         -8.1450     1.0900     0.8210 nc         1 86S      -0.683600
     39 C2B         -9.4200     1.3710     0.6920 cd         1 86S       0.701800
     40 N2B         -9.8390     2.4410     1.3450 nv         1 86S      -1.061200
     41 N1B        -10.3370     0.6960    -0.0320 ns         1 86S      -0.461400
     42 C6B        -10.0470    -0.4240    -0.7570 c          1 86S       0.520000
     43 O6B        -10.9010    -1.0210    -1.3990 o          1 86S      -0.543500
     44 C5B         -8.6040    -0.8010    -0.6570 cd         1 86S       0.098500
     45 N7B         -7.8950    -1.8570    -1.2180 nd         1 86S      -0.619000
     46 C8B         -6.6430    -1.7110    -0.7850 cc         1 86S       0.454400
     47 H3          10.0870    -1.6330     2.8510 hn         1 86S       0.489500
     48 H4          10.0870    -0.3510     1.7160 hn         1 86S       0.489500
     49 H6           6.5210     2.1280     0.0160 h2         1 86S       0.105700
     50 H7           6.8370    -0.2040    -1.4660 h1         1 86S       0.055700
     51 H8           6.9140     1.4000    -3.4140 ho         1 86S       0.517500
     52 H9           4.4230    -0.3250    -1.9820 h1         1 86S       0.052700
     53 H10          5.2610    -0.7410    -3.9590 ho         1 86S       0.492500
     54 H11          4.7510     2.6560    -2.7650 h1         1 86S       0.108700
     55 H12          2.6180     1.7300    -3.5540 h1         1 86S       0.017200
     56 H13          2.2790     1.0360    -1.9620 h1         1 86S       0.017200
     57 H15         -2.4830    -0.2050    -2.0230 h1         1 86S       0.017200
     58 H16         -1.1410     0.2010    -0.9440 h1         1 86S       0.017200
     59 H17         -2.7140     0.7190     0.9000 h1         1 86S       0.108700
     60 H18         -3.4970    -1.9240    -0.5110 h1         1 86S       0.052700
     61 H19         -1.9840    -2.8500     0.7230 ho         1 86S       0.492500
     62 H20         -4.9500    -2.2360     1.4460 h1         1 86S       0.055700
     63 H21         -2.9670    -1.2020     2.6450 ho         1 86S       0.517500
     64 H22         -5.6490     0.5420     1.5000 h2         1 86S       0.105700
     65 H23        -10.6330     2.9350     0.9560 hn         1 86S       0.489500
     66 H24         -9.0960     3.0250     1.7060 hn         1 86S       0.489500
     67 H25        -11.2970     1.0000    -0.0370 hn         1 86S       0.304000
     68 H26         -5.8060    -2.3580    -1.0200 h5         1 86S       0.127600
     69 H2           8.2420    -2.1000     4.0250 hn         1 86S       0.304000
     70 O6A          5.8080    -2.4470     4.2530 o          1 86S      -0.543500
     71 H5           3.2970     0.4300     0.6620 h5         1 86S       0.127600
@<TRIPOS>BOND
     1     1     2 1   
     2     1     3 1   
     3     1    22 1   
     4     1    23 1   
     5     4     5 1   
     6     4    10 1   
     7     4    70 2   
     8     5     6 1   
     9     5    69 1   
    10     6     7 1   
    11     6     8 2   
    12     7    47 1   
    13     7    48 1   
    14     8     9 1   
    15     9    10 2   
    16     9    13 1   
    17    10    11 1   
    18    11    12 2   
    19    12    13 1   
    20    12    71 1   
    21    13    14 1   
    22    14    15 1   
    23    14    16 1   
    24    14    49 1   
    25    15    20 1   
    26    16    17 1   
    27    16    18 1   
    28    16    50 1   
    29    17    51 1   
    30    18    19 1   
    31    18    20 1   
    32    18    52 1   
    33    19    53 1   
    34    20    21 1   
    35    20    54 1   
    36    21    22 1   
    37    21    55 1   
    38    21    56 1   
    39    23    24 1   
    40    24    25 1   
    41    24    26 1   
    42    24    27 1   
    43    27    28 1   
    44    28    29 1   
    45    28    57 1   
    46    28    58 1   
    47    29    30 1   
    48    29    31 1   
    49    29    59 1   
    50    30    35 1   
    51    31    32 1   
    52    31    33 1   
    53    31    60 1   
    54    32    61 1   
    55    33    34 1   
    56    33    35 1   
    57    33    62 1   
    58    34    63 1   
    59    35    36 1   
    60    35    64 1   
    61    36    37 1   
    62    36    46 1   
    63    37    38 1   
    64    37    44 2   
    65    38    39 2   
    66    39    40 1   
    67    39    41 1   
    68    40    65 1   
    69    40    66 1   
    70    41    42 1   
    71    41    67 1   
    72    42    43 2   
    73    42    44 1   
    74    44    45 1   
    75    45    46 2   
    76    46    68 1   
@<TRIPOS>SUBSTRUCTURE
     1 86S         1 TEMP              0 ****  ****    0 ROOT
