@<TRIPOS>MOLECULE
86U
   40    42     1     0     0
SMALL
No Charge or Current Charge


@<TRIPOS>ATOM
      1 O20         -6.0060    -1.2560    -1.0450 o          1 86U      -0.509100
      2 C19         -5.7570    -0.4800    -0.1270 c          1 86U       0.536100
      3 C18         -6.8680     0.2810     0.6110 c6         1 86U      -0.185400
      4 C17         -6.5460     1.7990     0.7130 c6         1 86U      -0.108400
      5 C16         -5.1110     2.0610     1.2430 c6         1 86U       0.151800
      6 N15         -4.0940     1.3780     0.4050 n7         1 86U      -0.851400
      7 C14         -4.3050    -0.1090     0.3400 c6         1 86U       0.072500
      8 C13         -3.2140    -0.7680    -0.5620 c3         1 86U      -0.061400
      9 C12         -1.7620    -0.5850    -0.0580 c3         1 86U      -0.092400
     10 C11         -0.7210    -1.2920    -0.9500 c3         1 86U       0.091000
     11 N10          0.6660    -1.1180    -0.4590 n          1 86U      -0.332300
     12 C22          1.4740    -0.1260    -1.0080 c          1 86U       0.575600
     13 O23          1.0870     0.6340    -1.8870 o          1 86U      -0.525000
     14 C06          2.8460    -0.0460    -0.4490 ca         1 86U      -0.200600
     15 C05          3.7660     0.9190    -0.9220 ca         1 86U      -0.060000
     16 C03          5.0580     0.9800    -0.3810 ca         1 86U       0.109000
     17 F40          5.9340     1.9050    -0.8370 f          1 86U      -0.156000
     18 C02          5.4320     0.0790     0.6290 ca         1 86U       0.173000
     19 F41          6.6750     0.1260     1.1600 f          1 86U      -0.153000
     20 C24          4.5150    -0.8760     1.0930 ca         1 86U      -0.130000
     21 C07          3.2150    -0.9510     0.5620 ca         1 86U       0.196400
     22 N08          2.3680    -1.9330     1.0840 nc         1 86U      -0.622100
     23 C09          1.1460    -1.9530     0.5380 cd         1 86U       0.510800
     24 H1          -7.8480     0.0790     0.1610 hc         1 86U       0.068700
     25 H2          -6.8580    -0.0890     1.6450 hc         1 86U       0.068700
     26 H3          -6.6580     2.2640    -0.2770 hc         1 86U       0.052200
     27 H4          -7.2760     2.2930     1.3690 hc         1 86U       0.052200
     28 H5          -4.9150     3.1440     1.2530 h1         1 86U       0.059200
     29 H6          -5.0330     1.7060     2.2820 h1         1 86U       0.059200
     30 H7          -4.1430     1.7670    -0.5460 hn         1 86U       0.417000
     31 H9          -4.2080    -0.5270     1.3530 h1         1 86U       0.074700
     32 H10         -3.4110    -1.8450    -0.6340 hc         1 86U       0.053700
     33 H11         -3.2890    -0.3740    -1.5840 hc         1 86U       0.053700
     34 H12         -1.5200     0.4840    -0.0160 hc         1 86U       0.062200
     35 H13         -1.6850    -0.9710     0.9660 hc         1 86U       0.062200
     36 H14         -0.9490    -2.3660    -0.9830 h1         1 86U       0.063200
     37 H15         -0.8080    -0.9200    -1.9790 h1         1 86U       0.063200
     38 H16          3.4840     1.6210    -1.7040 ha         1 86U       0.157000
     39 H17          4.8170    -1.5660     1.8750 ha         1 86U       0.155000
     40 H18          0.4420    -2.6930     0.9000 h5         1 86U       0.050800
@<TRIPOS>BOND
     1     1     2 2   
     2     2     3 1   
     3     2     7 1   
     4     3     4 1   
     5     3    24 1   
     6     3    25 1   
     7     4     5 1   
     8     4    26 1   
     9     4    27 1   
    10     5     6 1   
    11     5    28 1   
    12     5    29 1   
    13     6     7 1   
    14     6    30 1   
    15     7     8 1   
    16     7    31 1   
    17     8     9 1   
    18     8    32 1   
    19     8    33 1   
    20     9    10 1   
    21     9    34 1   
    22     9    35 1   
    23    10    11 1   
    24    10    36 1   
    25    10    37 1   
    26    11    12 1   
    27    11    23 1   
    28    12    13 2   
    29    12    14 1   
    30    14    15 ar  
    31    14    21 ar  
    32    15    16 ar  
    33    15    38 1   
    34    16    17 1   
    35    16    18 ar  
    36    18    19 1   
    37    18    20 ar  
    38    20    21 ar  
    39    20    39 1   
    40    21    22 1   
    41    22    23 2   
    42    23    40 1   
@<TRIPOS>SUBSTRUCTURE
     1 86U         1 TEMP              0 ****  ****    0 ROOT
