@<TRIPOS>MOLECULE
86U
   40    42     1     0     0
SMALL
bcc


@<TRIPOS>ATOM
      1 O20         -5.9290    -1.2880    -0.8800 o          1 86U      -0.509100
      2 C19         -5.6420    -0.4580    -0.0460 c          1 86U       0.536100
      3 C18         -6.6810     0.3070     0.7360 c6         1 86U      -0.185400
      4 C17         -6.4120     1.8150     0.6910 c6         1 86U      -0.108400
      5 C16         -4.9570     2.1060     1.0360 c6         1 86U       0.151800
      6 N15         -4.0150     1.3600     0.2190 n7         1 86U      -0.796200
      7 C14         -4.2050    -0.0860     0.2990 c6         1 86U       0.072500
      8 C13         -3.1770    -0.8260    -0.5420 c3         1 86U      -0.061400
      9 C12         -1.7470    -0.5470    -0.0970 c3         1 86U      -0.092400
     10 C11         -0.7600    -1.3490    -0.9320 c3         1 86U       0.091000
     11 N10          0.6220    -1.1800    -0.4860 n          1 86U      -0.399300
     12 C22          1.3410    -0.0750    -0.9070 c          1 86U       0.718100
     13 O23          0.8620     0.7500    -1.6630 o          1 86U      -0.600500
     14 C06          2.6940    -0.0130    -0.3670 ca         1 86U      -0.200600
     15 C05          3.5340     1.0490    -0.7180 ca         1 86U      -0.078000
     16 C03          4.8000     1.0920    -0.2040 ca         1 86U       0.073900
     17 F40          5.6350     2.0850    -0.5140 f          1 86U      -0.120900
     18 C02          5.2500     0.0880     0.6580 ca         1 86U       0.137900
     19 F41          6.4930     0.1690     1.1280 f          1 86U      -0.117900
     20 C24          4.4410    -0.9560     1.0150 ca         1 86U      -0.148000
     21 C07          3.1390    -1.0180     0.5000 ca         1 86U       0.196400
     22 N08          2.3360    -2.0700     0.8630 nc         1 86U      -0.622100
     23 C09          1.1540    -2.0950     0.3700 cd         1 86U       0.510800
     24 H1          -7.6790     0.0620     0.3710 hc         1 86U       0.068700
     25 H2          -6.6170    -0.0340     1.7760 hc         1 86U       0.068700
     26 H3          -6.6310     2.1950    -0.3110 hc         1 86U       0.052200
     27 H4          -7.0840     2.3310     1.3800 hc         1 86U       0.052200
     28 H5          -4.7460     3.1710     0.9250 h1         1 86U       0.059200
     29 H6          -4.7700     1.8540     2.0850 h1         1 86U       0.059200
     30 H7          -4.0930     1.6550    -0.7490 hn         1 86U       0.361800
     31 H9          -4.0630    -0.3660     1.3530 h1         1 86U       0.074700
     32 H10         -3.3720    -1.8990    -0.4780 hc         1 86U       0.053700
     33 H11         -3.2990    -0.5540    -1.5950 hc         1 86U       0.053700
     34 H12         -1.5290     0.5180    -0.1780 hc         1 86U       0.062200
     35 H13         -1.6300    -0.8200     0.9570 hc         1 86U       0.062200
     36 H14         -0.9890    -2.4140    -0.8710 h1         1 86U       0.063200
     37 H15         -0.8200    -1.0720    -1.9840 h1         1 86U       0.063200
     38 H16          3.1920     1.8300    -1.3840 ha         1 86U       0.175000
     39 H17          4.7990    -1.7300     1.6820 ha         1 86U       0.173000
     40 H18          0.4920    -2.9120     0.6340 h5         1 86U       0.050800
@<TRIPOS>BOND
     1     1     2 2   
     2     2     3 1   
     3     2     7 1   
     4     3     4 1   
     5     3    24 1   
     6     3    25 1   
     7     4     5 1   
     8     4    26 1   
     9     4    27 1   
    10     5     6 1   
    11     5    28 1   
    12     5    29 1   
    13     6     7 1   
    14     6    30 1   
    15     7     8 1   
    16     7    31 1   
    17     8     9 1   
    18     8    32 1   
    19     8    33 1   
    20     9    10 1   
    21     9    34 1   
    22     9    35 1   
    23    10    11 1   
    24    10    36 1   
    25    10    37 1   
    26    11    12 1   
    27    11    23 1   
    28    12    13 2   
    29    12    14 1   
    30    14    15 ar  
    31    14    21 ar  
    32    15    16 ar  
    33    15    38 1   
    34    16    17 1   
    35    16    18 ar  
    36    18    19 1   
    37    18    20 ar  
    38    20    21 ar  
    39    20    39 1   
    40    21    22 1   
    41    22    23 2   
    42    23    40 1   
@<TRIPOS>SUBSTRUCTURE
     1 86U         1 TEMP              0 ****  ****    0 ROOT
