@<TRIPOS>MOLECULE
86V
   65    69     1     0     0
SMALL
abcg2


@<TRIPOS>ATOM
      1 CBD         -7.2960     1.3280     0.4280 c5         1 86V       0.161800
      2 CBE         -7.9100     0.4280    -0.6450 c5         1 86V      -0.060700
      3 CBH         -7.7260     1.0040    -2.0430 c3         1 86V      -0.084100
      4 CBF         -7.1380    -0.8990    -0.4580 c5         1 86V      -0.079400
      5 CBG         -6.0000    -0.5680     0.5170 c5         1 86V       0.157800
      6 NBC         -5.9190     0.8810     0.4910 n3         1 86V      -0.708600
      7 CBB         -5.1660     1.4720     1.5680 c3         1 86V       0.174800
      8 CBA         -3.7050     1.0790     1.5640 c3         1 86V       0.164600
      9 OAZ         -3.1370     1.4620     0.3240 os         1 86V      -0.326100
     10 CAW         -1.8790     1.0840     0.0410 ca         1 86V       0.155100
     11 CAX         -1.4310     1.3460    -1.2560 ca         1 86V      -0.181000
     12 CAY         -0.1560     0.9750    -1.6370 ca         1 86V      -0.047500
     13 CAV         -1.0160     0.4680     0.9460 ca         1 86V      -0.181000
     14 CAU          0.2660     0.1120     0.5460 ca         1 86V      -0.047500
     15 CAT          0.7130     0.3450    -0.7470 ca         1 86V      -0.159300
     16 CAI          2.0670    -0.1230    -1.2310 c6         1 86V       0.276800
     17 OAH          1.9650    -1.4390    -1.7810 os         1 86V      -0.338100
     18 CAE          1.9930    -2.4620    -0.9050 ca         1 86V       0.192100
     19 CAD          1.3160    -3.6240    -1.2400 ca         1 86V      -0.241000
     20 CAC          1.3730    -4.7230    -0.3870 ca         1 86V       0.175100
     21 OAG          0.7320    -5.8750    -0.6570 oh         1 86V      -0.531100
     22 CAB          2.1050    -4.6460     0.7970 ca         1 86V      -0.181000
     23 CAA          2.7770    -3.4760     1.1070 ca         1 86V      -0.031000
     24 CAF          2.7400    -2.3600     0.2720 ca         1 86V      -0.171800
     25 CAK          3.4590    -1.1140     0.5450 ce         1 86V      -0.007400
     26 CAR          4.5190    -1.1320     1.6060 c3         1 86V      -0.053900
     27 CAJ          3.1370    -0.0260    -0.1760 cf         1 86V      -0.106400
     28 CAL          3.6960     1.3230     0.0300 ca         1 86V      -0.076800
     29 CAM          4.2490     2.0440    -1.0320 ca         1 86V      -0.059500
     30 CAN          4.7640     3.3150    -0.8540 ca         1 86V      -0.177000
     31 CAO          4.7300     3.9110     0.4050 ca         1 86V       0.142100
     32 OAS          5.2430     5.1500     0.5300 oh         1 86V      -0.532100
     33 CAP          4.1700     3.2150     1.4730 ca         1 86V      -0.177000
     34 CAQ          3.6590     1.9410     1.2790 ca         1 86V      -0.059500
     35 H1          -7.3540     2.3920     0.1820 h1         1 86V       0.034700
     36 H2          -7.8200     1.1860     1.3900 h1         1 86V       0.034700
     37 H3          -8.9760     0.2880    -0.4560 hc         1 86V       0.048700
     38 H4          -6.6740     1.2310    -2.2310 hc         1 86V       0.037033
     39 H5          -8.0560     0.2970    -2.8070 hc         1 86V       0.037033
     40 H6          -8.2980     1.9250    -2.1750 hc         1 86V       0.037033
     41 H7          -7.7730    -1.6890    -0.0580 hc         1 86V       0.046700
     42 H8          -6.7500    -1.2580    -1.4130 hc         1 86V       0.046700
     43 H9          -6.2410    -0.9400     1.5280 h1         1 86V       0.034200
     44 H10         -5.0530    -1.0270     0.2240 h1         1 86V       0.034200
     45 H12         -5.2480     2.5600     1.4970 h1         1 86V       0.039700
     46 H13         -5.5650     1.1910     2.5590 h1         1 86V       0.039700
     47 H14         -3.1990     1.5800     2.3970 h1         1 86V       0.034200
     48 H15         -3.5930     0.0000     1.7170 h1         1 86V       0.034200
     49 H16         -2.0930     1.8360    -1.9600 ha         1 86V       0.122000
     50 H17          0.1680     1.1780    -2.6510 ha         1 86V       0.115500
     51 H18         -1.3190     0.2610     1.9630 ha         1 86V       0.122000
     52 H19          0.9200    -0.3540     1.2720 ha         1 86V       0.115500
     53 H20          2.3510     0.4920    -2.0880 h1         1 86V       0.085700
     54 H21          0.7490    -3.6640    -2.1650 ha         1 86V       0.130000
     55 H22          0.2660    -5.8140    -1.4980 ho         1 86V       0.468000
     56 H23          2.1490    -5.4980     1.4620 ha         1 86V       0.130000
     57 H24          3.3450    -3.4390     2.0270 ha         1 86V       0.114000
     58 H25          4.0830    -1.1820     2.6060 hc         1 86V       0.046700
     59 H26          5.1600    -2.0080     1.4950 hc         1 86V       0.046700
     60 H27          5.1470    -0.2460     1.5650 hc         1 86V       0.046700
     61 H28          4.2990     1.6000    -2.0190 ha         1 86V       0.115500
     62 H29          5.1980     3.8490    -1.6900 ha         1 86V       0.121000
     63 H30          5.1830     5.4470     1.4440 ho         1 86V       0.464000
     64 H31          4.1250     3.6670     2.4580 ha         1 86V       0.121000
     65 H32          3.2100     1.4240     2.1180 ha         1 86V       0.115500
@<TRIPOS>BOND
     1     1     2 1   
     2     1     6 1   
     3     1    35 1   
     4     1    36 1   
     5     2     3 1   
     6     2     4 1   
     7     2    37 1   
     8     3    38 1   
     9     3    39 1   
    10     3    40 1   
    11     4     5 1   
    12     4    41 1   
    13     4    42 1   
    14     5     6 1   
    15     5    43 1   
    16     5    44 1   
    17     6     7 1   
    18     7     8 1   
    19     7    45 1   
    20     7    46 1   
    21     8     9 1   
    22     8    47 1   
    23     8    48 1   
    24     9    10 1   
    25    10    11 ar  
    26    10    13 ar  
    27    11    12 ar  
    28    11    49 1   
    29    12    15 ar  
    30    12    50 1   
    31    13    14 ar  
    32    13    51 1   
    33    14    15 ar  
    34    14    52 1   
    35    15    16 1   
    36    16    17 1   
    37    16    27 1   
    38    16    53 1   
    39    17    18 1   
    40    18    19 ar  
    41    18    24 ar  
    42    19    20 ar  
    43    19    54 1   
    44    20    21 1   
    45    20    22 ar  
    46    21    55 1   
    47    22    23 ar  
    48    22    56 1   
    49    23    24 ar  
    50    23    57 1   
    51    24    25 1   
    52    25    26 1   
    53    25    27 2   
    54    26    58 1   
    55    26    59 1   
    56    26    60 1   
    57    27    28 1   
    58    28    29 ar  
    59    28    34 ar  
    60    29    30 ar  
    61    29    61 1   
    62    30    31 ar  
    63    30    62 1   
    64    31    32 1   
    65    31    33 ar  
    66    32    63 1   
    67    33    34 ar  
    68    33    64 1   
    69    34    65 1   
@<TRIPOS>SUBSTRUCTURE
     1 86V         1 TEMP              0 ****  ****    0 ROOT
