@<TRIPOS>MOLECULE
86V
   65    69     1     0     0
SMALL
No Charge or Current Charge


@<TRIPOS>ATOM
      1 CBD         -7.4030     1.6780     0.4330 c5         1 86V       0.161800
      2 CBE         -8.2840     0.7690    -0.4890 c5         1 86V      -0.060700
      3 CBH         -8.8880     1.4820    -1.7180 c3         1 86V      -0.084100
      4 CBF         -7.3350    -0.4160    -0.8440 c5         1 86V      -0.079400
      5 CBG         -6.3850    -0.4250     0.3720 c5         1 86V       0.157800
      6 NBC         -6.0740     1.0170     0.4350 n3         1 86V      -0.708600
      7 CBB         -5.1490     1.4570     1.5140 c3         1 86V       0.174800
      8 CBA         -3.7220     0.8470     1.4750 c3         1 86V       0.164600
      9 OAZ         -3.0690     1.2490     0.2540 os         1 86V      -0.326100
     10 CAW         -1.7870     0.8490    -0.0600 ca         1 86V       0.155100
     11 CAX         -1.2420     1.2870    -1.2760 ca         1 86V      -0.181000
     12 CAY          0.0590     0.9120    -1.6520 ca         1 86V      -0.047500
     13 CAV         -1.0160     0.0260     0.7890 ca         1 86V      -0.181000
     14 CAU          0.2860    -0.3490     0.4150 ca         1 86V      -0.047500
     15 CAT          0.8330     0.0910    -0.8080 ca         1 86V      -0.159300
     16 CAI          2.2570    -0.3060    -1.2260 c6         1 86V       0.276800
     17 OAH          2.2170    -1.6650    -1.7160 os         1 86V      -0.338100
     18 CAE          2.4060    -2.7070    -0.8380 ca         1 86V       0.192100
     19 CAD          1.8980    -3.9690    -1.1770 ca         1 86V      -0.241000
     20 CAC          2.0690    -5.0470    -0.3010 ca         1 86V       0.175100
     21 OAG          1.5700    -6.2730    -0.6190 oh         1 86V      -0.531100
     22 CAB          2.7510    -4.8670     0.9090 ca         1 86V      -0.181000
     23 CAA          3.2790    -3.6090     1.2460 ca         1 86V      -0.031000
     24 CAF          3.1220    -2.5170     0.3630 ca         1 86V      -0.171800
     25 CAK          3.6760    -1.1580     0.6450 ce         1 86V      -0.007400
     26 CAR          4.7290    -1.0340     1.7420 c3         1 86V      -0.053900
     27 CAJ          3.3090    -0.0890    -0.1190 cf         1 86V      -0.106400
     28 CAL          3.7250     1.3210     0.0340 ca         1 86V      -0.076800
     29 CAM          4.2880     2.0320    -1.0460 ca         1 86V      -0.059500
     30 CAN          4.6700     3.3760    -0.8880 ca         1 86V      -0.177000
     31 CAO          4.4940     4.0180     0.3460 ca         1 86V       0.142100
     32 OAS          4.8680     5.3200     0.4880 oh         1 86V      -0.532100
     33 CAP          3.9340     3.3180     1.4260 ca         1 86V      -0.177000
     34 CAQ          3.5510     1.9740     1.2700 ca         1 86V      -0.059500
     35 H1          -7.3370     2.7100     0.0610 h1         1 86V       0.034700
     36 H2          -7.8290     1.7170     1.4450 h1         1 86V       0.034700
     37 H3          -9.1340     0.3950     0.0940 hc         1 86V       0.048700
     38 H4          -8.1030     1.9050    -2.3570 hc         1 86V       0.037033
     39 H5          -9.4790     0.7860    -2.3260 hc         1 86V       0.037033
     40 H6          -9.5480     2.3020    -1.4120 hc         1 86V       0.037033
     41 H7          -7.8710    -1.3640    -0.9650 hc         1 86V       0.046700
     42 H8          -6.7800    -0.2300    -1.7720 hc         1 86V       0.046700
     43 H9          -6.8850    -0.7800     1.2840 h1         1 86V       0.034200
     44 H10         -5.4970    -1.0450     0.1910 h1         1 86V       0.034200
     45 H12         -5.0440     2.5500     1.4800 h1         1 86V       0.039700
     46 H13         -5.5890     1.2150     2.4910 h1         1 86V       0.039700
     47 H14         -3.1600     1.2090     2.3450 h1         1 86V       0.034200
     48 H15         -3.7880    -0.2470     1.5400 h1         1 86V       0.034200
     49 H16         -1.8330     1.9200    -1.9330 ha         1 86V       0.122000
     50 H17          0.4640     1.2620    -2.6000 ha         1 86V       0.115500
     51 H18         -1.4070    -0.3300     1.7380 ha         1 86V       0.122000
     52 H19          0.8660    -0.9830     1.0800 ha         1 86V       0.115500
     53 H20          2.5290     0.3190    -2.0870 h1         1 86V       0.085700
     54 H21          1.3640    -4.0940    -2.1150 ha         1 86V       0.130000
     55 H22          1.1300    -6.2080    -1.4930 ho         1 86V       0.468000
     56 H23          2.8760    -5.7060     1.5890 ha         1 86V       0.130000
     57 H24          3.8000    -3.4970     2.1930 ha         1 86V       0.114000
     58 H25          4.2620    -0.9810     2.7320 hc         1 86V       0.046700
     59 H26          5.4190    -1.8860     1.7370 hc         1 86V       0.046700
     60 H27          5.3510    -0.1400     1.6200 hc         1 86V       0.046700
     61 H28          4.4440     1.5430    -2.0050 ha         1 86V       0.115500
     62 H29          5.1070     3.9170    -1.7230 ha         1 86V       0.121000
     63 H30          4.6720     5.5990     1.4080 ho         1 86V       0.464000
     64 H31          3.7910     3.8080     2.3870 ha         1 86V       0.121000
     65 H32          3.1090     1.4410     2.1090 ha         1 86V       0.115500
@<TRIPOS>BOND
     1     1     2 1   
     2     1     6 1   
     3     1    35 1   
     4     1    36 1   
     5     2     3 1   
     6     2     4 1   
     7     2    37 1   
     8     3    38 1   
     9     3    39 1   
    10     3    40 1   
    11     4     5 1   
    12     4    41 1   
    13     4    42 1   
    14     5     6 1   
    15     5    43 1   
    16     5    44 1   
    17     6     7 1   
    18     7     8 1   
    19     7    45 1   
    20     7    46 1   
    21     8     9 1   
    22     8    47 1   
    23     8    48 1   
    24     9    10 1   
    25    10    11 ar  
    26    10    13 ar  
    27    11    12 ar  
    28    11    49 1   
    29    12    15 ar  
    30    12    50 1   
    31    13    14 ar  
    32    13    51 1   
    33    14    15 ar  
    34    14    52 1   
    35    15    16 1   
    36    16    17 1   
    37    16    27 1   
    38    16    53 1   
    39    17    18 1   
    40    18    19 ar  
    41    18    24 ar  
    42    19    20 ar  
    43    19    54 1   
    44    20    21 1   
    45    20    22 ar  
    46    21    55 1   
    47    22    23 ar  
    48    22    56 1   
    49    23    24 ar  
    50    23    57 1   
    51    24    25 1   
    52    25    26 1   
    53    25    27 2   
    54    26    58 1   
    55    26    59 1   
    56    26    60 1   
    57    27    28 1   
    58    28    29 ar  
    59    28    34 ar  
    60    29    30 ar  
    61    29    61 1   
    62    30    31 ar  
    63    30    62 1   
    64    31    32 1   
    65    31    33 ar  
    66    32    63 1   
    67    33    34 ar  
    68    33    64 1   
    69    34    65 1   
@<TRIPOS>SUBSTRUCTURE
     1 86V         1 TEMP              0 ****  ****    0 ROOT
