@<TRIPOS>MOLECULE
86W
   44    46     1     0     0
SMALL
abcg2


@<TRIPOS>ATOM
      1 C10         99.6760    96.1730    66.0930 ca         1 86W      -0.269300
      2 C13         97.1080    96.4880    66.9420 ca         1 86W       0.406900
      3 C15        101.0760    96.0370    65.5750 c3         1 86W       0.365300
      4 C20         94.2020   100.3200    61.1960 cc         1 86W      -0.253400
      5 C21         93.2840   100.9980    60.3050 c          1 86W       0.582200
      6 C24         94.8860   100.6230    58.4620 c          1 86W       0.608000
      7 C28         93.7690   100.1600    62.6230 c3         1 86W      -0.023900
      8 C02         96.3590    97.7450    61.6410 ca         1 86W      -0.038300
      9 C03         96.3480    99.1470    61.5810 ca         1 86W      -0.088800
     10 C04         97.2130    99.8960    62.3740 ca         1 86W      -0.073000
     11 C05         98.1030    99.2720    63.2380 ca         1 86W      -0.108000
     12 C06         98.1060    97.8900    63.2910 ca         1 86W       0.129100
     13 C07         97.2560    97.1270    62.5080 ca         1 86W      -0.107000
     14 C09         98.6810    96.7990    65.3220 ca         1 86W       0.627300
     15 C11         99.3150    95.6920    67.3400 ca         1 86W       0.006000
     16 C12         98.0030    95.8470    67.7790 ca         1 86W      -0.205000
     17 C19         95.3790    99.8540    60.7020 cd         1 86W       0.155400
     18 F16        101.1390    95.2890    64.4480 f          1 86W      -0.108333
     19 F17        101.8910    95.4500    66.4740 f          1 86W      -0.108333
     20 F18        101.6330    97.2330    65.2740 f          1 86W      -0.108333
     21 N14         97.4410    96.9580    65.7330 nb         1 86W      -0.739000
     22 N23         93.7100   101.0960    58.9900 ns         1 86W      -0.461500
     23 N26         95.7270   100.0070    59.3660 n          1 86W      -0.313000
     24 O08         99.0480    97.2550    64.1000 os         1 86W      -0.367400
     25 O22         92.1950   101.4650    60.6330 o          1 86W      -0.534000
     26 O25         95.1640   100.7480    57.2770 o          1 86W      -0.559000
     27 H1          96.0770    96.6380    67.2430 h4         1 86W       0.030100
     28 H2          94.4680    99.5510    63.1880 hc         1 86W       0.050700
     29 H3          93.6860   101.1330    63.1140 hc         1 86W       0.050700
     30 H4          92.7830    99.6940    62.6690 hc         1 86W       0.050700
     31 H5          95.5930    97.0820    59.7370 hc         1 86W       0.053033
     32 H6          95.5400    95.8630    61.0140 hc         1 86W       0.053033
     33 H7          94.3800    97.2000    61.0030 hc         1 86W       0.053033
     34 H8          97.1860   100.9770    62.3170 ha         1 86W       0.129000
     35 H9          98.7790    99.8420    63.8610 ha         1 86W       0.138000
     36 H10         97.2890    96.0480    62.5820 ha         1 86W       0.134000
     37 H11        100.0490    95.2020    67.9630 ha         1 86W       0.142000
     38 H12         97.6910    95.4810    68.7460 ha         1 86W       0.138000
     39 H13         97.6320    99.1820    59.6210 h1         1 86W       0.059367
     40 H14         96.8160    98.7070    58.1180 h1         1 86W       0.059367
     41 H15         97.4910   100.3370    58.2840 h1         1 86W       0.059367
     42 H16         93.0880   101.5530    58.3360 hn         1 86W       0.345500
     43 C27         96.9980    99.5250    58.8130 c3         1 86W       0.093300
     44 C01         95.4180    96.9240    60.8040 c3         1 86W      -0.055800
@<TRIPOS>BOND
     1     1     3 1   
     2     1    14 ar  
     3     1    15 ar  
     4     2    16 ar  
     5     2    21 ar  
     6     2    27 1   
     7     3    18 1   
     8     3    19 1   
     9     3    20 1   
    10     4     5 1   
    11     4     7 1   
    12     4    17 2   
    13     5    22 1   
    14     5    25 2   
    15     6    22 1   
    16     6    23 1   
    17     6    26 2   
    18     7    28 1   
    19     7    29 1   
    20     7    30 1   
    21     8     9 ar  
    22     8    13 ar  
    23     8    44 1   
    24     9    10 ar  
    25     9    17 1   
    26    10    11 ar  
    27    10    34 1   
    28    11    12 ar  
    29    11    35 1   
    30    12    13 ar  
    31    12    24 1   
    32    13    36 1   
    33    14    21 ar  
    34    14    24 1   
    35    15    16 ar  
    36    15    37 1   
    37    16    38 1   
    38    17    23 1   
    39    22    42 1   
    40    23    43 1   
    41    31    44 1   
    42    32    44 1   
    43    33    44 1   
    44    39    43 1   
    45    40    43 1   
    46    41    43 1   
@<TRIPOS>SUBSTRUCTURE
     1 86W         1 TEMP              0 ****  ****    0 ROOT
