@<TRIPOS>MOLECULE
86W
   44    46     1     0     0
SMALL
No Charge or Current Charge


@<TRIPOS>ATOM
      1 C10         99.6490    96.4030    66.0340 ca         1 86W      -0.269300
      2 C13         97.3060    96.3800    67.4820 ca         1 86W       0.406900
      3 C15        100.9080    96.4130    65.1700 c3         1 86W       0.365300
      4 C20         94.2510   100.4360    61.2590 cc         1 86W      -0.253400
      5 C21         93.5690   101.4370    60.4090 c          1 86W       0.582200
      6 C24         95.1660   100.9410    58.6390 c          1 86W       0.608000
      7 C28         93.6270   100.2370    62.6310 c3         1 86W      -0.023900
      8 C02         96.2910    97.4110    61.2290 ca         1 86W      -0.038300
      9 C03         96.0810    98.7670    61.6040 ca         1 86W      -0.088800
     10 C04         96.6000    99.2230    62.8360 ca         1 86W      -0.073000
     11 C05         97.3380    98.3690    63.6700 ca         1 86W      -0.108000
     12 C06         97.5530    97.0320    63.2900 ca         1 86W       0.129100
     13 C07         97.0350    96.5650    62.0740 ca         1 86W      -0.107000
     14 C09         98.3780    96.2930    65.4330 ca         1 86W       0.627300
     15 C11         99.7180    96.5130    67.4380 ca         1 86W       0.006000
     16 C12         98.5220    96.5010    68.1650 ca         1 86W      -0.205000
     17 C19         95.3280    99.7210    60.7530 cd         1 86W       0.155400
     18 F16        101.0330    95.2730    64.4530 f          1 86W      -0.108333
     19 F17        102.0420    96.5360    65.8970 f          1 86W      -0.108333
     20 F18        100.9030    97.4410    64.2910 f          1 86W      -0.108333
     21 N14         97.2290    96.2740    66.1400 nb         1 86W      -0.739000
     22 N23         94.0880   101.5640    59.1660 ns         1 86W      -0.461500
     23 N26         95.8400   100.0390    59.4830 n          1 86W      -0.313000
     24 O08         98.2890    96.1680    64.0690 os         1 86W      -0.367400
     25 O22         92.6100   102.1110    60.7500 o          1 86W      -0.534000
     26 O25         95.5250   101.1900    57.5000 o          1 86W      -0.559000
     27 H1          96.3620    96.3650    68.0270 h4         1 86W       0.030100
     28 H2          93.8520    99.2460    63.0430 hc         1 86W       0.050700
     29 H3          93.9930   100.9890    63.3410 hc         1 86W       0.050700
     30 H4          92.5330   100.3120    62.5980 hc         1 86W       0.050700
     31 H5          96.4310    96.6480    59.1950 hc         1 86W       0.053033
     32 H6          95.2390    95.8160    60.1950 hc         1 86W       0.053033
     33 H7          94.8690    97.4100    59.5520 hc         1 86W       0.053033
     34 H8          96.4570   100.2590    63.1350 ha         1 86W       0.129000
     35 H9          97.7450    98.7540    64.6010 ha         1 86W       0.138000
     36 H10         97.2000    95.5270    61.7950 ha         1 86W       0.134000
     37 H11        100.6690    96.6060    67.9620 ha         1 86W       0.142000
     38 H12         98.5290    96.5830    69.2480 ha         1 86W       0.138000
     39 H13         97.7720    99.1480    59.8170 h1         1 86W       0.059367
     40 H14         96.9860    98.7240    58.2650 h1         1 86W       0.059367
     41 H15         97.7110   100.3330    58.5090 h1         1 86W       0.059367
     42 H16         93.6270   102.2250    58.5630 hn         1 86W       0.345500
     43 C27         97.1500    99.5250    58.9970 c3         1 86W       0.093300
     44 C01         95.6740    96.7980    59.9730 c3         1 86W      -0.055800
@<TRIPOS>BOND
     1     1     3 1   
     2     1    14 ar  
     3     1    15 ar  
     4     2    16 ar  
     5     2    21 ar  
     6     2    27 1   
     7     3    18 1   
     8     3    19 1   
     9     3    20 1   
    10     4     5 1   
    11     4     7 1   
    12     4    17 2   
    13     5    22 1   
    14     5    25 2   
    15     6    22 1   
    16     6    23 1   
    17     6    26 2   
    18     7    28 1   
    19     7    29 1   
    20     7    30 1   
    21     8     9 ar  
    22     8    13 ar  
    23     8    44 1   
    24     9    10 ar  
    25     9    17 1   
    26    10    11 ar  
    27    10    34 1   
    28    11    12 ar  
    29    11    35 1   
    30    12    13 ar  
    31    12    24 1   
    32    13    36 1   
    33    14    21 ar  
    34    14    24 1   
    35    15    16 ar  
    36    15    37 1   
    37    16    38 1   
    38    17    23 1   
    39    22    42 1   
    40    23    43 1   
    41    31    44 1   
    42    32    44 1   
    43    33    44 1   
    44    39    43 1   
    45    40    43 1   
    46    41    43 1   
@<TRIPOS>SUBSTRUCTURE
     1 86W         1 TEMP              0 ****  ****    0 ROOT
