@<TRIPOS>MOLECULE
86X
   40    42     1     0     0
SMALL
abcg2


@<TRIPOS>ATOM
      1 C12         -1.1000    -0.1200     1.5990 c3         1 86X       0.091000
      2 C14         -3.4740     0.2250     0.8830 c3         1 86X      -0.068400
      3 C15         -4.4810     0.2760    -0.2560 c6         1 86X       0.072500
      4 C17         -5.5880    -1.0150    -1.9870 c6         1 86X       0.155800
      5 C20         -5.8300     0.8320     0.1850 c          1 86X       0.586100
      6 O21         -6.0130     1.2970     1.2860 o          1 86X      -0.513100
      7 C19         -6.9030     0.7970    -0.8710 c6         1 86X      -0.182400
      8 C18         -6.9730    -0.5640    -1.5650 c6         1 86X      -0.068400
      9 N16         -4.7170    -1.0470    -0.8240 n7         1 86X      -0.859400
     10 C13         -2.0690    -0.1560     0.4270 c3         1 86X      -0.099400
     11 N11          0.2710    -0.4380     1.2010 n          1 86X      -0.335300
     12 C22          1.0900     0.5720     0.7240 c          1 86X       0.576600
     13 O23          0.7020     1.7220     0.6390 o          1 86X      -0.527000
     14 C06          2.4260     0.1200     0.3530 ca         1 86X      -0.219600
     15 C05          3.3670     1.0390    -0.1160 ca         1 86X      -0.007000
     16 C03          4.6230     0.6090    -0.4650 ca         1 86X       0.039000
     17 CL4          5.8190     1.7040    -1.0400 cl         1 86X      -0.159000
     18 C02          4.9410    -0.7490    -0.3490 ca         1 86X       0.218000
     19 F01          6.1620    -1.1430    -0.6970 f          1 86X      -0.153000
     20 C08          4.0350    -1.6680     0.1070 ca         1 86X      -0.148000
     21 C07          2.7520    -1.2380     0.4700 ca         1 86X       0.211400
     22 N09          1.8520    -2.1630     0.9330 nc         1 86X      -0.624100
     23 C10          0.6930    -1.7290     1.2650 cd         1 86X       0.512800
     24 H1          -1.0990     0.8590     2.0740 h1         1 86X       0.068700
     25 H2          -1.3940    -0.8440     2.3590 h1         1 86X       0.068700
     26 H3          -3.4310     1.2090     1.3560 hc         1 86X       0.064700
     27 H4          -3.8220    -0.4760     1.6460 hc         1 86X       0.064700
     28 H5          -4.1070     0.9830    -1.0230 h1         1 86X       0.038700
     29 H6          -5.6320    -2.0180    -2.4140 h1         1 86X       0.035700
     30 H7          -5.2100    -0.3450    -2.7760 h1         1 86X       0.035700
     31 H8          -7.8610     1.0830    -0.4380 hc         1 86X       0.067200
     32 H9          -6.6400     1.5620    -1.6130 hc         1 86X       0.067200
     33 H10         -7.6320    -0.5010    -2.4320 hc         1 86X       0.055200
     34 H11         -7.4040    -1.3020    -0.8840 hc         1 86X       0.055200
     35 H12         -3.8300    -1.4570    -1.0880 hn         1 86X       0.415000
     36 H14         -1.7340     0.5320    -0.3530 hc         1 86X       0.050200
     37 H15         -2.0530    -1.1600    -0.0070 hc         1 86X       0.050200
     38 H16          3.1090     2.0860    -0.2010 ha         1 86X       0.154000
     39 H17          4.3020    -2.7140     0.1880 ha         1 86X       0.156000
     40 H18         -0.0430    -2.4300     1.6420 h5         1 86X       0.051800
@<TRIPOS>BOND
     1     1    10 1   
     2     1    11 1   
     3     1    24 1   
     4     1    25 1   
     5     2     3 1   
     6     2    10 1   
     7     2    26 1   
     8     2    27 1   
     9     3     5 1   
    10     3     9 1   
    11     3    28 1   
    12     4     8 1   
    13     4     9 1   
    14     4    29 1   
    15     4    30 1   
    16     5     6 2   
    17     5     7 1   
    18     7     8 1   
    19     7    31 1   
    20     7    32 1   
    21     8    33 1   
    22     8    34 1   
    23     9    35 1   
    24    10    36 1   
    25    10    37 1   
    26    11    12 1   
    27    11    23 1   
    28    12    13 2   
    29    12    14 1   
    30    14    15 ar  
    31    14    21 ar  
    32    15    16 ar  
    33    15    38 1   
    34    16    17 1   
    35    16    18 ar  
    36    18    19 1   
    37    18    20 ar  
    38    20    21 ar  
    39    20    39 1   
    40    21    22 1   
    41    22    23 2   
    42    23    40 1   
@<TRIPOS>SUBSTRUCTURE
     1 86X         1 TEMP              0 ****  ****    0 ROOT
