@<TRIPOS>MOLECULE
86X
   40    42     1     0     0
SMALL
No Charge or Current Charge


@<TRIPOS>ATOM
      1 C12         -1.0600    -0.0090     1.5680 c3         1 86X       0.091000
      2 C14         -3.5150     0.3030     0.8470 c3         1 86X      -0.068400
      3 C15         -4.5700     0.3120    -0.3030 c6         1 86X       0.072500
      4 C17         -5.7190    -1.1290    -1.9700 c6         1 86X       0.155800
      5 C20         -5.9500     0.8950     0.1720 c          1 86X       0.586100
      6 O21         -6.1520     1.3660     1.2880 o          1 86X      -0.513100
      7 C19         -7.0790     0.7610    -0.8620 c6         1 86X      -0.182400
      8 C18         -7.1150    -0.6670    -1.4750 c6         1 86X      -0.068400
      9 N16         -4.7070    -1.0640    -0.8880 n7         1 86X      -0.859400
     10 C13         -2.0790    -0.0800     0.4120 c3         1 86X      -0.099400
     11 N11          0.3100    -0.3820     1.1450 n          1 86X      -0.335300
     12 C22          1.2260     0.6140     0.8190 c          1 86X       0.576600
     13 O23          0.9500     1.8060     0.8510 o          1 86X      -0.527000
     14 C06          2.5680     0.1300     0.4200 ca         1 86X      -0.219600
     15 C05          3.5880     1.0430     0.0640 ca         1 86X      -0.007000
     16 C03          4.8540     0.5720    -0.3130 ca         1 86X       0.039000
     17 Cl4          6.1180     1.7200    -0.7540 cl         1 86X      -0.159000
     18 C02          5.0960    -0.8120    -0.3320 ca         1 86X       0.218000
     19 F01          6.3100    -1.2880    -0.6920 f          1 86X      -0.153000
     20 C08          4.0810    -1.7110     0.0220 ca         1 86X      -0.148000
     21 C07          2.8080    -1.2530     0.4010 ca         1 86X       0.211400
     22 N09          1.8560    -2.2200     0.7380 nc         1 86X      -0.624100
     23 C10          0.6660    -1.7190     1.0890 cd         1 86X       0.512800
     24 H1          -1.0630     1.0020     1.9970 h1         1 86X       0.068700
     25 H2          -1.3800    -0.6910     2.3680 h1         1 86X       0.068700
     26 H3          -3.4710     1.3010     1.3020 hc         1 86X       0.064700
     27 H4          -3.8420    -0.3810     1.6420 hc         1 86X       0.064700
     28 H5          -4.2140     0.9940    -1.0890 h1         1 86X       0.038700
     29 H6          -5.7860    -2.1610    -2.3460 h1         1 86X       0.035700
     30 H7          -5.3990    -0.4920    -2.8090 h1         1 86X       0.035700
     31 H8          -8.0410     1.0700    -0.4350 hc         1 86X       0.067200
     32 H9          -6.8150     1.4280    -1.6930 hc         1 86X       0.067200
     33 H10         -7.8320    -0.7000    -2.3070 hc         1 86X       0.055200
     34 H11         -7.4830    -1.3790    -0.7220 hc         1 86X       0.055200
     35 H12         -3.7980    -1.3630    -1.2660 hn         1 86X       0.415000
     36 H14         -1.7540     0.5930    -0.3910 hc         1 86X       0.050200
     37 H15         -2.0770    -1.0970    -0.0000 hc         1 86X       0.050200
     38 H16          3.4030     2.1150     0.0780 ha         1 86X       0.154000
     39 H17          4.2850    -2.7770     0.0020 ha         1 86X       0.156000
     40 H18         -0.1160    -2.4180     1.3610 h5         1 86X       0.051800
@<TRIPOS>BOND
     1     1    10 1   
     2     1    11 1   
     3     1    24 1   
     4     1    25 1   
     5     2     3 1   
     6     2    10 1   
     7     2    26 1   
     8     2    27 1   
     9     3     5 1   
    10     3     9 1   
    11     3    28 1   
    12     4     8 1   
    13     4     9 1   
    14     4    29 1   
    15     4    30 1   
    16     5     6 2   
    17     5     7 1   
    18     7     8 1   
    19     7    31 1   
    20     7    32 1   
    21     8    33 1   
    22     8    34 1   
    23     9    35 1   
    24    10    36 1   
    25    10    37 1   
    26    11    12 1   
    27    11    23 1   
    28    12    13 2   
    29    12    14 1   
    30    14    15 ar  
    31    14    21 ar  
    32    15    16 ar  
    33    15    38 1   
    34    16    17 1   
    35    16    18 ar  
    36    18    19 1   
    37    18    20 ar  
    38    20    21 ar  
    39    20    39 1   
    40    21    22 1   
    41    22    23 2   
    42    23    40 1   
@<TRIPOS>SUBSTRUCTURE
     1 86X         1 TEMP              0 ****  ****    0 ROOT
