@<TRIPOS>MOLECULE
86Y
   65    69     1     0     0
SMALL
No Charge or Current Charge


@<TRIPOS>ATOM
      1 CBD          7.5100     0.5510     0.1480 c5         1 86Y       0.163800
      2 CBE          7.6610    -0.3270     1.4120 c5         1 86Y      -0.068700
      3 CBH          9.0810    -0.3560     2.0200 c3         1 86Y      -0.083100
      4 CBF          7.1420    -1.7070     0.9000 c5         1 86Y      -0.078400
      5 CBG          6.2460    -1.3460    -0.3250 c5         1 86Y       0.159800
      6 NBC          6.1610     0.1340    -0.2770 n3         1 86Y      -0.710600
      7 CBB          5.6370     0.7990    -1.5000 c3         1 86Y       0.175800
      8 CBA          4.1900     0.4140    -1.9100 c3         1 86Y       0.163600
      9 OAZ          3.2790     0.8240    -0.8700 os         1 86Y      -0.325100
     10 CAW          1.9200     0.6020    -0.9540 ca         1 86Y       0.156100
     11 CAX          1.3180    -0.0290    -2.0630 ca         1 86Y      -0.182500
     12 CAY         -0.0730    -0.2290    -2.0900 ca         1 86Y      -0.048000
     13 CAV          1.1190     1.0290     0.1160 ca         1 86Y      -0.182500
     14 CAU         -0.2710     0.8300     0.0900 ca         1 86Y      -0.048000
     15 CAT         -0.8780     0.1970    -1.0140 ca         1 86Y      -0.166300
     16 CAH         -2.3960    -0.0390    -1.0590 c6         1 86Y       0.275800
     17 OAG         -3.0100     1.1940    -1.4920 os         1 86Y      -0.334100
     18 CAE         -3.3410     2.1410    -0.5500 ca         1 86Y       0.187100
     19 CAD         -3.4280     3.4830    -0.9460 ca         1 86Y      -0.181000
     20 CAC         -3.7710     4.4660    -0.0110 ca         1 86Y       0.175100
     21 OAL         -3.8450     5.7690    -0.3960 oh         1 86Y      -0.529100
     22 CAB         -4.0380     4.1090     1.3180 ca         1 86Y      -0.242000
     23 CAA         -3.9700     2.7620     1.7160 ca         1 86Y      -0.023000
     24 CAF         -3.6230     1.7620     0.7800 ca         1 86Y      -0.171800
     25 CAJ         -3.5700     0.3070     1.1190 ce         1 86Y      -0.006400
     26 CAK         -4.1740    -0.1270     2.4510 c3         1 86Y      -0.054900
     27 CAI         -3.0010    -0.5820     0.2520 cf         1 86Y      -0.105400
     28 CAM         -2.9300    -2.0550     0.3650 ca         1 86Y      -0.080800
     29 CAN         -1.6900    -2.7260     0.3360 ca         1 86Y      -0.059500
     30 CAO         -1.6400    -4.1280     0.4280 ca         1 86Y      -0.179000
     31 CAP         -2.8240    -4.8690     0.5440 ca         1 86Y       0.141100
     32 OAS         -2.7640    -6.2270     0.6320 oh         1 86Y      -0.533100
     33 CAQ         -4.0630    -4.2110     0.5690 ca         1 86Y      -0.179000
     34 CAR         -4.1150    -2.8090     0.4780 ca         1 86Y      -0.059500
     35 H1           7.5640     1.6240     0.3810 h1         1 86Y       0.034700
     36 H2           8.2710     0.3180    -0.6110 h1         1 86Y       0.034700
     37 H3           6.9960     0.0500     2.1980 hc         1 86Y       0.061700
     38 H4           9.8180    -0.7130     1.2910 hc         1 86Y       0.033700
     39 H5           9.3890     0.6450     2.3450 hc         1 86Y       0.033700
     40 H6           9.1210    -1.0190     2.8920 hc         1 86Y       0.033700
     41 H7           7.9610    -2.3680     0.5920 hc         1 86Y       0.046200
     42 H8           6.5780    -2.2350     1.6760 hc         1 86Y       0.046200
     43 H9           6.7210    -1.6830    -1.2580 h1         1 86Y       0.034200
     44 H10          5.2560    -1.8180    -0.2620 h1         1 86Y       0.034200
     45 H12          5.6660     1.8890    -1.3640 h1         1 86Y       0.040700
     46 H13          6.2960     0.5720    -2.3490 h1         1 86Y       0.040700
     47 H14          3.9440     0.9200    -2.8530 h1         1 86Y       0.034700
     48 H15          4.1310    -0.6690    -2.0760 h1         1 86Y       0.034700
     49 H16          1.9080    -0.3710    -2.9080 ha         1 86Y       0.123000
     50 H17         -0.5250    -0.7170    -2.9510 ha         1 86Y       0.118000
     51 H18          1.5800     1.5160     0.9720 ha         1 86Y       0.123000
     52 H19         -0.8710     1.1680     0.9320 ha         1 86Y       0.118000
     53 H20         -2.5930    -0.7820    -1.8460 h1         1 86Y       0.087700
     54 H21         -3.2210     3.7580    -1.9750 ha         1 86Y       0.144000
     55 H22         -4.0970     6.3040     0.3870 ho         1 86Y       0.466000
     56 H23         -4.3050     4.8680     2.0490 ha         1 86Y       0.115000
     57 H24         -4.1920     2.5130     2.7510 ha         1 86Y       0.112000
     58 H25         -3.6390     0.3290     3.2920 hc         1 86Y       0.046700
     59 H26         -5.2280     0.1670     2.5210 hc         1 86Y       0.046700
     60 H27         -4.1270    -1.2090     2.6110 hc         1 86Y       0.046700
     61 H28         -0.7620    -2.1650     0.2570 ha         1 86Y       0.120500
     62 H29         -0.6800    -4.6380     0.4100 ha         1 86Y       0.121000
     63 H30         -3.6780    -6.5730     0.7070 ho         1 86Y       0.464000
     64 H31         -4.9880    -4.7770     0.6560 ha         1 86Y       0.121000
     65 H32         -5.0800    -2.3050     0.4880 ha         1 86Y       0.120500
@<TRIPOS>BOND
     1     1     2 1   
     2     1     6 1   
     3     1    35 1   
     4     1    36 1   
     5     2     3 1   
     6     2     4 1   
     7     2    37 1   
     8     3    38 1   
     9     3    39 1   
    10     3    40 1   
    11     4     5 1   
    12     4    41 1   
    13     4    42 1   
    14     5     6 1   
    15     5    43 1   
    16     5    44 1   
    17     6     7 1   
    18     7     8 1   
    19     7    45 1   
    20     7    46 1   
    21     8     9 1   
    22     8    47 1   
    23     8    48 1   
    24     9    10 1   
    25    10    11 ar  
    26    10    13 ar  
    27    11    12 ar  
    28    11    49 1   
    29    12    15 ar  
    30    12    50 1   
    31    13    14 ar  
    32    13    51 1   
    33    14    15 ar  
    34    14    52 1   
    35    15    16 1   
    36    16    17 1   
    37    16    27 1   
    38    16    53 1   
    39    17    18 1   
    40    18    19 ar  
    41    18    24 ar  
    42    19    20 ar  
    43    19    54 1   
    44    20    21 1   
    45    20    22 ar  
    46    21    55 1   
    47    22    23 ar  
    48    22    56 1   
    49    23    24 ar  
    50    23    57 1   
    51    24    25 1   
    52    25    26 1   
    53    25    27 2   
    54    26    58 1   
    55    26    59 1   
    56    26    60 1   
    57    27    28 1   
    58    28    29 ar  
    59    28    34 ar  
    60    29    30 ar  
    61    29    61 1   
    62    30    31 ar  
    63    30    62 1   
    64    31    32 1   
    65    31    33 ar  
    66    32    63 1   
    67    33    34 ar  
    68    33    64 1   
    69    34    65 1   
@<TRIPOS>SUBSTRUCTURE
     1 86Y         1 TEMP              0 ****  ****    0 ROOT
