@<TRIPOS>MOLECULE
86Y
   65    69     1     0     0
SMALL
bcc


@<TRIPOS>ATOM
      1 CBD          7.3050     0.5750     0.3830 c5         1 86Y       0.163800
      2 CBE          7.5720    -0.5540     1.3720 c5         1 86Y      -0.068700
      3 CBH          9.0470    -0.8060     1.6330 c3         1 86Y      -0.083100
      4 CBF          6.8290    -1.7480     0.7370 c5         1 86Y      -0.078400
      5 CBG          5.9490    -1.1360    -0.3640 c5         1 86Y       0.159800
      6 NBC          5.9670     0.2930    -0.0940 n3         1 86Y      -0.710600
      7 CBB          5.5600     1.1310    -1.1950 c3         1 86Y       0.175800
      8 CBA          4.1510     0.8560    -1.6720 c3         1 86Y       0.140400
      9 OAZ          3.2570     1.0440    -0.5890 os         1 86Y      -0.301900
     10 CAW          1.9560     0.7570    -0.7660 ca         1 86Y       0.156100
     11 CAX          1.3970     0.3460    -1.9750 ca         1 86Y      -0.200500
     12 CAY          0.0400     0.0590    -2.0390 ca         1 86Y      -0.066000
     13 CAV          1.1350     0.8780     0.3570 ca         1 86Y      -0.200500
     14 CAU         -0.2130     0.5860     0.2730 ca         1 86Y      -0.066000
     15 CAT         -0.7860     0.1690    -0.9280 ca         1 86Y      -0.166300
     16 CAH         -2.2620    -0.1310    -1.0730 c6         1 86Y       0.252600
     17 OAG         -2.9440     1.0090    -1.6010 os         1 86Y      -0.310900
     18 CAE         -3.2520     1.9820    -0.7230 ca         1 86Y       0.187100
     19 CAD         -3.3470     3.2780    -1.2030 ca         1 86Y      -0.199000
     20 CAC         -3.7110     4.3040    -0.3350 ca         1 86Y       0.175100
     21 OAL         -3.7880     5.5480    -0.8440 oh         1 86Y      -0.490100
     22 CAB         -3.9680     4.0230     1.0050 ca         1 86Y      -0.260000
     23 CAA         -3.8750     2.7170     1.4580 ca         1 86Y      -0.041000
     24 CAF         -3.5170     1.6660     0.6160 ca         1 86Y      -0.171800
     25 CAJ         -3.4760     0.2610     1.0300 ce         1 86Y      -0.006400
     26 CAK         -4.0400    -0.0840     2.3740 c3         1 86Y      -0.054900
     27 CAI         -2.9130    -0.6320     0.1940 cf         1 86Y      -0.105400
     28 CAM         -2.8660    -2.0900     0.4180 ca         1 86Y      -0.080800
     29 CAN         -1.6680    -2.8040     0.3340 ca         1 86Y      -0.077500
     30 CAO         -1.6270    -4.1760     0.5150 ca         1 86Y      -0.197000
     31 CAP         -2.7990    -4.8800     0.7800 ca         1 86Y       0.141100
     32 OAS         -2.7090    -6.2140     0.9500 oh         1 86Y      -0.494100
     33 CAQ         -4.0060    -4.1900     0.8530 ca         1 86Y      -0.197000
     34 CAR         -4.0310    -2.8170     0.6680 ca         1 86Y      -0.077500
     35 H1           7.3610     1.5670     0.8380 h1         1 86Y       0.034700
     36 H2           8.0510     0.5450    -0.4340 h1         1 86Y       0.034700
     37 H3           7.0860    -0.2970     2.3180 hc         1 86Y       0.061700
     38 H4           9.5640    -1.0850     0.7130 hc         1 86Y       0.033700
     39 H5           9.5390     0.0800     2.0370 hc         1 86Y       0.033700
     40 H6           9.1900    -1.6150     2.3510 hc         1 86Y       0.033700
     41 H7           7.5300    -2.4660     0.3080 hc         1 86Y       0.046200
     42 H8           6.2370    -2.2860     1.4780 hc         1 86Y       0.046200
     43 H9           6.3720    -1.3640    -1.3560 h1         1 86Y       0.034200
     44 H10          4.9300    -1.5270    -0.3540 h1         1 86Y       0.034200
     45 H12          5.6410     2.1770    -0.8870 h1         1 86Y       0.040700
     46 H13          6.2170     1.0120    -2.0740 h1         1 86Y       0.040700
     47 H14          3.9160     1.5410    -2.4940 h1         1 86Y       0.034700
     48 H15          4.0680    -0.1630    -2.0640 h1         1 86Y       0.034700
     49 H16          1.9970     0.2410    -2.8690 ha         1 86Y       0.141000
     50 H17         -0.3740    -0.2690    -2.9860 ha         1 86Y       0.136000
     51 H18          1.5660     1.1940     1.2990 ha         1 86Y       0.141000
     52 H19         -0.8230     0.6680     1.1640 ha         1 86Y       0.136000
     53 H20         -2.3810    -0.8870    -1.8520 h1         1 86Y       0.087700
     54 H21         -3.1390     3.4870    -2.2450 ha         1 86Y       0.162000
     55 H22         -4.0350     6.1760    -0.1560 ho         1 86Y       0.427000
     56 H23         -4.2480     4.8140     1.6900 ha         1 86Y       0.133000
     57 H24         -4.0940     2.5230     2.4990 ha         1 86Y       0.130000
     58 H25         -3.5590     0.5100     3.1540 hc         1 86Y       0.046700
     59 H26         -5.1090     0.1310     2.4290 hc         1 86Y       0.046700
     60 H27         -3.8930    -1.1290     2.6290 hc         1 86Y       0.046700
     61 H28         -0.7390    -2.2820     0.1380 ha         1 86Y       0.138500
     62 H29         -0.6830    -4.7040     0.4560 ha         1 86Y       0.139000
     63 H30         -3.5770    -6.5870     1.1420 ho         1 86Y       0.425000
     64 H31         -4.9310    -4.7220     1.0450 ha         1 86Y       0.139000
     65 H32         -4.9830    -2.3030     0.7060 ha         1 86Y       0.138500
@<TRIPOS>BOND
     1     1     2 1   
     2     1     6 1   
     3     1    35 1   
     4     1    36 1   
     5     2     3 1   
     6     2     4 1   
     7     2    37 1   
     8     3    38 1   
     9     3    39 1   
    10     3    40 1   
    11     4     5 1   
    12     4    41 1   
    13     4    42 1   
    14     5     6 1   
    15     5    43 1   
    16     5    44 1   
    17     6     7 1   
    18     7     8 1   
    19     7    45 1   
    20     7    46 1   
    21     8     9 1   
    22     8    47 1   
    23     8    48 1   
    24     9    10 1   
    25    10    11 ar  
    26    10    13 ar  
    27    11    12 ar  
    28    11    49 1   
    29    12    15 ar  
    30    12    50 1   
    31    13    14 ar  
    32    13    51 1   
    33    14    15 ar  
    34    14    52 1   
    35    15    16 1   
    36    16    17 1   
    37    16    27 1   
    38    16    53 1   
    39    17    18 1   
    40    18    19 ar  
    41    18    24 ar  
    42    19    20 ar  
    43    19    54 1   
    44    20    21 1   
    45    20    22 ar  
    46    21    55 1   
    47    22    23 ar  
    48    22    56 1   
    49    23    24 ar  
    50    23    57 1   
    51    24    25 1   
    52    25    26 1   
    53    25    27 2   
    54    26    58 1   
    55    26    59 1   
    56    26    60 1   
    57    27    28 1   
    58    28    29 ar  
    59    28    34 ar  
    60    29    30 ar  
    61    29    61 1   
    62    30    31 ar  
    63    30    62 1   
    64    31    32 1   
    65    31    33 ar  
    66    32    63 1   
    67    33    34 ar  
    68    33    64 1   
    69    34    65 1   
@<TRIPOS>SUBSTRUCTURE
     1 86Y         1 TEMP              0 ****  ****    0 ROOT
