@<TRIPOS>MOLECULE
870
   45    48     1     0     0
SMALL
No Charge or Current Charge


@<TRIPOS>ATOM
      1 C            2.0410    -0.7580    -2.2510 ca         1 870      -0.117000
      2 C1           2.7870     0.4260    -2.3750 ca         1 870      -0.041000
      3 C2           3.4570     0.9470    -1.2590 ca         1 870       0.094000
      4 C3           3.3870     0.2860    -0.0220 ca         1 870       0.019000
      5 C4           2.6440    -0.9110     0.1090 ca         1 870      -0.273500
      6 C5           1.9640    -1.4290    -1.0180 ca         1 870       0.201000
      7 S            2.5550    -1.7020     1.7240 sy         1 870       1.213600
      8 O1           2.6810    -3.1520     1.5840 o          1 870      -0.511500
      9 O2           3.3440    -0.9520     2.7050 o          1 870      -0.511500
     10 N            0.9930    -1.5340     2.2400 nu         1 870      -0.839300
     11 C6           0.2310    -0.5440     1.7710 cc         1 870       0.773500
     12 N1           0.5440     0.7470     1.8850 nd         1 870      -0.631100
     13 C7          -0.5130     1.3270     1.2220 ca         1 870       0.126400
     14 C8          -0.7480     2.6860     1.0020 ca         1 870      -0.156000
     15 C9          -1.9180     3.0500     0.2910 ca         1 870       0.141100
     16 C10         -2.8040     2.0500    -0.1740 ca         1 870      -0.131000
     17 C11         -2.5560     0.6680     0.0470 cp         1 870       0.036000
     18 C12         -1.3750     0.3740     0.7660 ca         1 870      -0.010900
     19 O3          -0.9440    -0.8630     1.1210 os         1 870      -0.279700
     20 Cl2          4.3810     2.4380    -1.4080 cl         1 870      -0.178000
     21 Cl1          0.9660    -2.8820    -0.9470 cl         1 870      -0.165000
     22 O4          -2.2380     4.3650     0.0210 os         1 870      -0.340100
     23 C13         -1.4040     5.4590     0.4420 c3         1 870       0.146900
     24 C14         -3.8910    -2.5810    -1.4900 ca         1 870      -0.075000
     25 C15         -5.2780    -2.3690    -1.4180 ca         1 870      -0.168000
     26 C19         -5.7790    -1.1790    -0.8750 ca         1 870       0.289000
     27 C16         -4.8950    -0.1980    -0.4010 ca         1 870      -0.163000
     28 C17         -3.4910    -0.3880    -0.4550 cp         1 870       0.000000
     29 C18         -3.0080    -1.5980    -1.0130 ca         1 870      -0.131000
     30 H            1.5140    -1.1560    -3.1140 ha         1 870       0.137000
     31 H1           2.8410     0.9410    -3.3310 ha         1 870       0.137000
     32 H3           3.9090     0.7180     0.8300 ha         1 870       0.167000
     33 HN           0.5880    -2.4280     2.0230 hn         1 870       0.542000
     34 H8          -0.0420     3.4190     1.3760 ha         1 870       0.141000
     35 H10         -3.6890     2.3540    -0.7260 ha         1 870       0.139000
     36 H131        -1.3050     5.4770     1.5350 h1         1 870       0.043700
     37 H132        -0.4030     5.3800    -0.0010 h1         1 870       0.043700
     38 H133        -1.8410     6.4140     0.1260 h1         1 870       0.043700
     39 H14         -3.5010    -3.5020    -1.9170 ha         1 870       0.112000
     40 H15         -5.9580    -3.1320    -1.7880 ha         1 870       0.113000
     41 H16         -5.2960     0.7170     0.0250 ha         1 870       0.116000
     42 H18         -1.9380    -1.7690    -1.0910 ha         1 870       0.120000
     43 HN21        -7.7710    -1.7390    -1.0200 hn         1 870       0.448500
     44 HN22        -7.5020    -0.1810    -0.2890 hn         1 870       0.448500
     45 N2          -7.1310    -0.9760    -0.8060 nv         1 870      -1.073000
@<TRIPOS>BOND
     1     1     2 ar  
     2     1     6 ar  
     3     1    30 1   
     4     2     3 ar  
     5     2    31 1   
     6     3     4 ar  
     7     3    20 1   
     8     4     5 ar  
     9     4    32 1   
    10     5     6 ar  
    11     5     7 1   
    12     6    21 1   
    13     7     8 2   
    14     7     9 2   
    15     7    10 1   
    16    10    11 1   
    17    10    33 1   
    18    11    12 2   
    19    11    19 1   
    20    12    13 1   
    21    13    14 ar  
    22    13    18 ar  
    23    14    15 ar  
    24    14    34 1   
    25    15    16 ar  
    26    15    22 1   
    27    16    17 ar  
    28    16    35 1   
    29    17    18 ar  
    30    17    28 1   
    31    18    19 1   
    32    22    23 1   
    33    23    36 1   
    34    23    37 1   
    35    23    38 1   
    36    24    25 ar  
    37    24    29 ar  
    38    24    39 1   
    39    25    26 ar  
    40    25    40 1   
    41    26    27 ar  
    42    26    45 1   
    43    27    28 ar  
    44    27    41 1   
    45    28    29 ar  
    46    29    42 1   
    47    43    45 1   
    48    44    45 1   
@<TRIPOS>SUBSTRUCTURE
     1 870         1 TEMP              0 ****  ****    0 ROOT
