@<TRIPOS>MOLECULE
870
   45    48     1     0     0
SMALL
bcc


@<TRIPOS>ATOM
      1 C            3.8560    -0.6650    -2.1710 ca         1 870      -0.135000
      2 C1           4.4560     0.5600    -1.9350 ca         1 870      -0.059000
      3 C2           4.4350     1.0980    -0.6580 ca         1 870       0.002400
      4 C3           3.8220     0.4270     0.3850 ca         1 870       0.001000
      5 C4           3.2310    -0.8040     0.1410 ca         1 870      -0.273500
      6 C5           3.2440    -1.3550    -1.1370 ca         1 870       0.109400
      7 S            2.5000    -1.6460     1.5220 sy         1 870       1.355200
      8 O1           2.9720    -3.0100     1.5790 o          1 870      -0.582300
      9 O2           2.6130    -0.7860     2.6750 o          1 870      -0.582300
     10 N            0.8940    -1.7760     1.0930 nu         1 870      -0.784100
     11 C6           0.1050    -0.6930     0.8480 cc         1 870       0.773500
     12 N1           0.4400     0.5440     0.9290 nd         1 870      -0.631100
     13 C7          -0.7140     1.2130     0.5540 ca         1 870       0.126400
     14 C8          -0.9690     2.5760     0.4690 ca         1 870      -0.174000
     15 C9          -2.2540     2.9440     0.0810 ca         1 870       0.141100
     16 C10         -3.2320     1.9790    -0.2080 ca         1 870      -0.149000
     17 C11         -2.9840     0.6110    -0.1290 cp         1 870       0.036000
     18 C12         -1.6960     0.2820     0.2590 ca         1 870      -0.010900
     19 O3          -1.1470    -0.9590     0.4620 os         1 870      -0.279700
     20 CL2          5.1740     2.6270    -0.3610 cl         1 870      -0.086400
     21 CL1          2.4940    -2.8610    -1.4890 cl         1 870      -0.073400
     22 O4          -2.6560     4.2230    -0.0520 os         1 870      -0.316900
     23 C13         -1.7310     5.2520     0.2340 c3         1 870       0.123700
     24 C14         -4.7470    -2.4530    -1.4170 ca         1 870      -0.093000
     25 C15         -6.0400    -2.2380    -0.9710 ca         1 870      -0.186000
     26 C19         -6.3520    -1.0830    -0.2420 ca         1 870       0.150600
     27 C16         -5.3280    -0.1700     0.0250 ca         1 870      -0.181000
     28 C17         -4.0290    -0.3890    -0.4240 cp         1 870       0.000000
     29 C18         -3.7340    -1.5420    -1.1530 ca         1 870      -0.149000
     30 H            3.8650    -1.0830    -3.1680 ha         1 870       0.155000
     31 H1           4.9330     1.0880    -2.7490 ha         1 870       0.155000
     32 H3           3.8040     0.8580     1.3750 ha         1 870       0.185000
     33 HN           0.5360    -2.7090     0.9260 hn         1 870       0.486800
     34 H8          -0.1920     3.2920     0.6980 ha         1 870       0.159000
     35 H10         -4.2090     2.3200    -0.5260 ha         1 870       0.157000
     36 H131        -1.3900     5.2170     1.2720 h1         1 870       0.043700
     37 H132        -0.8590     5.2110    -0.4240 h1         1 870       0.043700
     38 H133        -2.2520     6.1920     0.0680 h1         1 870       0.043700
     39 H14         -4.5260    -3.3470    -1.9860 ha         1 870       0.130000
     40 H15         -6.8160    -2.9630    -1.1870 ha         1 870       0.131000
     41 H16         -5.5520     0.7150     0.6100 ha         1 870       0.134000
     42 H18         -2.7380    -1.7210    -1.5330 ha         1 870       0.138000
     43 HN21        -8.2280    -1.6440     0.2880 hn         1 870       0.393300
     44 HN22        -7.7470    -0.1790     0.9230 hn         1 870       0.393300
     45 N2          -7.6450    -0.8320     0.1620 nv         1 870      -0.824200
@<TRIPOS>BOND
     1     1     2 ar  
     2     1     6 ar  
     3     1    30 1   
     4     2     3 ar  
     5     2    31 1   
     6     3     4 ar  
     7     3    20 1   
     8     4     5 ar  
     9     4    32 1   
    10     5     6 ar  
    11     5     7 1   
    12     6    21 1   
    13     7     8 2   
    14     7     9 2   
    15     7    10 1   
    16    10    11 1   
    17    10    33 1   
    18    11    12 2   
    19    11    19 1   
    20    12    13 1   
    21    13    14 ar  
    22    13    18 ar  
    23    14    15 ar  
    24    14    34 1   
    25    15    16 ar  
    26    15    22 1   
    27    16    17 ar  
    28    16    35 1   
    29    17    18 ar  
    30    17    28 1   
    31    18    19 1   
    32    22    23 1   
    33    23    36 1   
    34    23    37 1   
    35    23    38 1   
    36    24    25 ar  
    37    24    29 ar  
    38    24    39 1   
    39    25    26 ar  
    40    25    40 1   
    41    26    27 ar  
    42    26    45 1   
    43    27    28 ar  
    44    27    41 1   
    45    28    29 ar  
    46    29    42 1   
    47    43    45 1   
    48    44    45 1   
@<TRIPOS>SUBSTRUCTURE
     1 870         1 TEMP              0 ****  ****    0 ROOT
