@<TRIPOS>MOLECULE
871
   44    46     1     0     0
SMALL
No Charge or Current Charge


@<TRIPOS>ATOM
      1 C23          3.4570    -0.6450    -0.4240 ca         1 871      -0.105800
      2 C17          3.1050     1.2300     1.0150 c5         1 871       0.148300
      3 C20          6.2460    -0.6080    -0.2590 ca         1 871      -0.104500
      4 C12         -5.5590    -0.3710    -0.1500 c1         1 871       0.300900
      5 C11         -4.5890    -0.4270    -1.2520 c3         1 871       0.027000
      6 C18          4.0870     0.3040     0.3500 ca         1 871      -0.105800
      7 C19          5.4870     0.3450     0.4480 ca         1 871      -0.087000
      8 C21          5.6000    -1.5820    -1.0510 ca         1 871      -0.104500
      9 N13         -6.3450    -0.3460     0.7100 n1         1 871      -0.456000
     10 C01         -1.6730    -3.2370    -0.1510 c3         1 871      -0.086100
     11 C03         -2.7500    -2.2760     1.9600 c3         1 871      -0.086100
     12 C04         -2.3090    -0.7680    -0.0470 ca         1 871      -0.113300
     13 C05         -1.0470    -0.2430     0.3130 ca         1 871      -0.038000
     14 C06         -0.6390     1.0490    -0.0810 ca         1 871      -0.247600
     15 C07         -1.5520     1.8500    -0.7890 ca         1 871       0.209100
     16 O08         -1.2290     3.1280    -1.1270 oh         1 871      -0.543100
     17 C09         -2.8050     1.3480    -1.1540 ca         1 871      -0.161000
     18 C10         -3.2000     0.0420    -0.8050 ca         1 871      -0.020300
     19 O15          0.8630     2.8070     0.4480 o          1 871      -0.650100
     20 N16          1.7920     0.7090     0.4960 n          1 871      -0.390800
     21 C22          4.1940    -1.6040    -1.1370 ca         1 871      -0.087000
     22 C24          1.9600    -0.5050    -0.3780 c5         1 871       0.148300
     23 H1           3.1620     1.1570     2.1080 h1         1 871       0.068950
     24 H2           3.2930     2.2710     0.7200 h1         1 871       0.068950
     25 H3           7.3320    -0.5930    -0.1950 ha         1 871       0.117000
     26 H4          -4.5590    -1.4420    -1.6620 hc         1 871       0.078700
     27 H5          -4.9680     0.2030    -2.0640 hc         1 871       0.078700
     28 H6           5.9790     1.0990     1.0590 ha         1 871       0.119500
     29 H7           6.1890    -2.3170    -1.5960 ha         1 871       0.117000
     30 H8          -1.9910    -4.2530     0.1120 hc         1 871       0.036367
     31 H9          -1.6320    -3.1670    -1.2450 hc         1 871       0.036367
     32 H10         -0.6600    -3.0880     0.2400 hc         1 871       0.036367
     33 H11         -3.6470    -2.4940     0.0530 hc         1 871       0.050700
     34 H12         -1.7780    -2.0790     2.4280 hc         1 871       0.036367
     35 H13         -3.4700    -1.5430     2.3410 hc         1 871       0.036367
     36 H14         -3.0820    -3.2730     2.2750 hc         1 871       0.036367
     37 H15         -0.3900    -0.8450     0.9330 ha         1 871       0.115000
     38 H16         -0.4010     3.3340    -0.6200 ho         1 871       0.515000
     39 H17         -3.4820     1.9900    -1.7130 ha         1 871       0.134000
     40 H18          3.6900    -2.3530    -1.7440 ha         1 871       0.119500
     41 H19          1.5410    -0.3520    -1.3820 h1         1 871       0.068950
     42 H20          1.5100    -1.4030     0.0640 h1         1 871       0.068950
     43 C14          0.7210     1.5990     0.2860 c          1 871       0.628700
     44 C02         -2.6610    -2.1940     0.4200 c3         1 871      -0.012400
@<TRIPOS>BOND
     1     1     6 ar  
     2     1    21 ar  
     3     1    22 1   
     4     2     6 1   
     5     2    20 1   
     6     2    23 1   
     7     2    24 1   
     8     3     7 ar  
     9     3     8 ar  
    10     3    25 1   
    11     4     5 1   
    12     4     9 3   
    13     5    18 1   
    14     5    26 1   
    15     5    27 1   
    16     6     7 ar  
    17     7    28 1   
    18     8    21 ar  
    19     8    29 1   
    20    10    30 1   
    21    10    31 1   
    22    10    32 1   
    23    10    44 1   
    24    11    34 1   
    25    11    35 1   
    26    11    36 1   
    27    11    44 1   
    28    12    13 ar  
    29    12    18 ar  
    30    12    44 1   
    31    13    14 ar  
    32    13    37 1   
    33    14    15 ar  
    34    14    43 1   
    35    15    16 1   
    36    15    17 ar  
    37    16    38 1   
    38    17    18 ar  
    39    17    39 1   
    40    19    43 2   
    41    20    22 1   
    42    20    43 1   
    43    21    40 1   
    44    22    41 1   
    45    22    42 1   
    46    33    44 1   
@<TRIPOS>SUBSTRUCTURE
     1 871         1 TEMP              0 ****  ****    0 ROOT
