@<TRIPOS>MOLECULE
871
   44    46     1     0     0
SMALL
bcc


@<TRIPOS>ATOM
      1 C23          3.4010    -0.7200    -0.2730 ca         1 871      -0.105800
      2 C17          3.0970     1.3690     0.7990 c5         1 871       0.148300
      3 C20          6.1520    -0.5780    -0.4170 ca         1 871      -0.122500
      4 C12         -5.4230    -0.4390    -0.1980 c1         1 871       0.211700
      5 C11         -4.4700    -0.3600    -1.2960 c3         1 871       0.027000
      6 C18          4.0660     0.3830     0.2320 ca         1 871      -0.105800
      7 C19          5.4480     0.4680     0.1680 ca         1 871      -0.105000
      8 C21          5.4810    -1.6870    -0.9260 ca         1 871      -0.122500
      9 N13         -6.1620    -0.4910     0.6830 n1         1 871      -0.366800
     10 C01         -1.6650    -3.2020    -0.2830 c3         1 871      -0.086100
     11 C03         -2.7710    -2.3410     1.8190 c3         1 871      -0.086100
     12 C04         -2.2730    -0.7720    -0.0780 ca         1 871      -0.113300
     13 C05         -1.0370    -0.2740     0.3110 ca         1 871      -0.056000
     14 C06         -0.6040     1.0140     0.0130 ca         1 871      -0.247600
     15 C07         -1.4910     1.8790    -0.6550 ca         1 871       0.209100
     16 O08         -1.2050     3.1590    -0.9130 oh         1 871      -0.504100
     17 C09         -2.7180     1.3840    -1.0830 ca         1 871      -0.179000
     18 C10         -3.1070     0.0820    -0.8090 ca         1 871      -0.020300
     19 O15          0.8020     2.7670     0.6970 o          1 871      -0.650100
     20 N16          1.8000     0.7770     0.4620 n          1 871      -0.457800
     21 C22          4.0950    -1.7670    -0.8560 ca         1 871      -0.105000
     22 C24          1.9260    -0.5890    -0.0510 c5         1 871       0.148300
     23 H1           3.2080     1.4870     1.8810 h1         1 871       0.068950
     24 H2           3.2000     2.3590     0.3510 h1         1 871       0.068950
     25 H3           7.2310    -0.5300    -0.4800 ha         1 871       0.135000
     26 H4          -4.4360    -1.3320    -1.7930 hc         1 871       0.078700
     27 H5          -4.8620     0.3470    -2.0290 hc         1 871       0.078700
     28 H6           5.9710     1.3290     0.5630 ha         1 871       0.137500
     29 H7           6.0420    -2.4930    -1.3800 ha         1 871       0.135000
     30 H8          -1.9670    -4.2190    -0.0290 hc         1 871       0.036367
     31 H9          -1.6210    -3.1250    -1.3700 hc         1 871       0.036367
     32 H10         -0.6540    -3.0560     0.1020 hc         1 871       0.036367
     33 H11         -3.6280    -2.4220    -0.1200 hc         1 871       0.050700
     34 H12         -1.8230    -2.1370     2.3200 hc         1 871       0.036367
     35 H13         -3.5190    -1.6590     2.2260 hc         1 871       0.036367
     36 H14         -3.0690    -3.3590     2.0770 hc         1 871       0.036367
     37 H15         -0.3950    -0.9170     0.8970 ha         1 871       0.133000
     38 H16         -0.4190     3.3960    -0.3760 ho         1 871       0.476000
     39 H17         -3.3830     2.0450    -1.6260 ha         1 871       0.152000
     40 H18          3.5750    -2.6310    -1.2510 ha         1 871       0.137500
     41 H19          1.3390    -0.7280    -0.9610 h1         1 871       0.068950
     42 H20          1.5930    -1.3300     0.6800 h1         1 871       0.068950
     43 C14          0.7150     1.5600     0.4250 c          1 871       0.695700
     44 C02         -2.6490    -2.1890     0.3030 c3         1 871      -0.012400
@<TRIPOS>BOND
     1     1     6 ar  
     2     1    21 ar  
     3     1    22 1   
     4     2     6 1   
     5     2    20 1   
     6     2    23 1   
     7     2    24 1   
     8     3     7 ar  
     9     3     8 ar  
    10     3    25 1   
    11     4     5 1   
    12     4     9 3   
    13     5    18 1   
    14     5    26 1   
    15     5    27 1   
    16     6     7 ar  
    17     7    28 1   
    18     8    21 ar  
    19     8    29 1   
    20    10    30 1   
    21    10    31 1   
    22    10    32 1   
    23    10    44 1   
    24    11    34 1   
    25    11    35 1   
    26    11    36 1   
    27    11    44 1   
    28    12    13 ar  
    29    12    18 ar  
    30    12    44 1   
    31    13    14 ar  
    32    13    37 1   
    33    14    15 ar  
    34    14    43 1   
    35    15    16 1   
    36    15    17 ar  
    37    16    38 1   
    38    17    18 ar  
    39    17    39 1   
    40    19    43 2   
    41    20    22 1   
    42    20    43 1   
    43    21    40 1   
    44    22    41 1   
    45    22    42 1   
    46    33    44 1   
@<TRIPOS>SUBSTRUCTURE
     1 871         1 TEMP              0 ****  ****    0 ROOT
