@<TRIPOS>MOLECULE
872
   47    48     1     0     0
SMALL
bcc


@<TRIPOS>ATOM
      1 C1           2.9550     1.0840    -4.6180 ca         1 872      -0.194000
      2 C2           3.0620     2.2920    -3.9540 ca         1 872       0.137900
      3 C3           4.2630     2.8020    -3.4860 ca         1 872      -0.102300
      4 C4           5.4020     2.0320    -3.7150 ca         1 872      -0.121000
      5 C5           5.3240     0.8250    -4.3730 ca         1 872       0.085900
      6 C6           4.1040     0.3510    -4.8240 ca         1 872       0.121900
      7 F9           6.4260     0.0980    -4.5890 f          1 872      -0.119900
      8 F10          1.9330     2.9900    -3.7510 f          1 872      -0.138900
      9 C11          4.3660     4.1060    -2.7480 c3         1 872      -0.032100
     10 C12          4.4720     3.9490    -1.2240 c3         1 872       0.184500
     11 C15          3.2600     3.1980    -0.6680 c3         1 872      -0.197400
     12 C16          3.3830     2.8490     0.8000 c          1 872       0.664100
     13 N19          2.2970     2.2850     1.3950 n          1 872      -0.466800
     14 N20          4.6810     5.2690    -0.6550 n8         1 872      -0.888800
     15 O22          4.4050     3.0690     1.4320 o          1 872      -0.582100
     16 C25          1.2740     1.5910     0.6250 c3         1 872       0.097000
     17 C26          1.6980     0.1680     0.2930 c3         1 872      -0.126400
     18 C27          2.0380    -0.6660     1.5220 c3         1 872       0.111000
     19 N28          3.2550    -0.2840     2.2280 ns         1 872      -0.577900
     20 C29          3.4370     0.8040     3.0010 c          1 872       0.696500
     21 C30          2.3940     1.9070     2.7980 c3         1 872       0.035700
     22 C37          2.6070     3.0620     3.7720 c3         1 872      -0.142400
     23 O39          4.3540     0.9040     3.7980 o          1 872      -0.606500
     24 F41          4.0470    -0.8190    -5.4610 f          1 872      -0.117900
     25 C42          1.6230     4.1870     3.5910 c3         1 872       0.666900
     26 F45          1.8380     4.9120     2.4840 f          1 872      -0.241300
     27 F46          1.6830     5.0480     4.6200 f          1 872      -0.241300
     28 F47          0.3510     3.7580     3.5250 f          1 872      -0.241300
     29 H1           1.9970     0.7200    -4.9660 ha         1 872       0.171000
     30 H4           6.3690     2.3860    -3.3770 ha         1 872       0.164000
     31 H111         3.5190     4.7530    -2.9860 hc         1 872       0.069200
     32 H112         5.2610     4.6310    -3.0870 hc         1 872       0.069200
     33 H12          5.3680     3.3600    -1.0100 h1         1 872       0.076700
     34 H151         2.3550     3.7930    -0.8290 hc         1 872       0.068200
     35 H152         3.1140     2.2660    -1.2230 hc         1 872       0.068200
     36 H201         4.8610     5.1870     0.3360 hn         1 872       0.353300
     37 H202         3.8350     5.8220    -0.7470 hn         1 872       0.353300
     38 H251         1.0390     2.1470    -0.2800 h1         1 872       0.063700
     39 H252         0.3550     1.5810     1.2150 h1         1 872       0.063700
     40 H261         2.5530     0.1710    -0.3890 hc         1 872       0.060700
     41 H262         0.8780    -0.3270    -0.2310 hc         1 872       0.060700
     42 H271         1.1860    -0.6760     2.2090 h1         1 872       0.046200
     43 H272         2.1880    -1.6980     1.2100 h1         1 872       0.046200
     44 HN28         3.9330    -1.0200     2.3670 hn         1 872       0.318500
     45 H30          1.4270     1.4600     3.0500 h1         1 872       0.069700
     46 H371         3.6140     3.4680     3.7120 hc         1 872       0.107200
     47 H372         2.4760     2.6740     4.7840 hc         1 872       0.107200
@<TRIPOS>BOND
     1     1     2 ar  
     2     1     6 ar  
     3     1    29 1   
     4     2     3 ar  
     5     2     8 1   
     6     3     4 ar  
     7     3     9 1   
     8     4     5 ar  
     9     4    30 1   
    10     5     6 ar  
    11     5     7 1   
    12     6    24 1   
    13     9    10 1   
    14     9    31 1   
    15     9    32 1   
    16    10    11 1   
    17    10    14 1   
    18    10    33 1   
    19    11    12 1   
    20    11    34 1   
    21    11    35 1   
    22    12    13 1   
    23    12    15 2   
    24    13    16 1   
    25    13    21 1   
    26    14    36 1   
    27    14    37 1   
    28    16    17 1   
    29    16    38 1   
    30    16    39 1   
    31    17    18 1   
    32    17    40 1   
    33    17    41 1   
    34    18    19 1   
    35    18    42 1   
    36    18    43 1   
    37    19    20 1   
    38    19    44 1   
    39    20    21 1   
    40    20    23 2   
    41    21    22 1   
    42    21    45 1   
    43    22    25 1   
    44    22    46 1   
    45    22    47 1   
    46    25    26 1   
    47    25    27 1   
    48    25    28 1   
@<TRIPOS>SUBSTRUCTURE
     1 872         1 TEMP              0 ****  ****    0 ROOT
