@<TRIPOS>MOLECULE
872
   47    48     1     0     0
SMALL
No Charge or Current Charge


@<TRIPOS>ATOM
      1 C1           3.1070     0.9920    -4.7610 ca         1 872      -0.176000
      2 C2           3.1030     2.2360    -4.1100 ca         1 872       0.173000
      3 C3           4.3040     2.7960    -3.6170 ca         1 872      -0.102300
      4 C4           5.5130     2.0880    -3.7900 ca         1 872      -0.103000
      5 C5           5.5160     0.8430    -4.4430 ca         1 872       0.121000
      6 C6           4.3130     0.2960    -4.9270 ca         1 872       0.157000
      7 F9           6.6830     0.1760    -4.6000 f          1 872      -0.155000
      8 F10          1.9270     2.8840    -3.9510 f          1 872      -0.174000
      9 C11          4.3220     4.1450    -2.8930 c3         1 872      -0.032100
     10 C12          4.4640     4.0070    -1.3560 c3         1 872       0.184500
     11 C15          3.2570     3.2970    -0.7030 c3         1 872      -0.197400
     12 C16          3.4380     2.8400     0.7560 c          1 872       0.597100
     13 N19          2.3160     2.3070     1.4470 n          1 872      -0.399800
     14 N20          4.6510     5.3350    -0.7480 n8         1 872      -0.999200
     15 O22          4.5150     2.9760     1.3210 o          1 872      -0.582100
     16 C25          1.2190     1.6480     0.7030 c3         1 872       0.097000
     17 C26          1.5520     0.1750     0.3700 c3         1 872      -0.126400
     18 C27          1.8820    -0.7200     1.5870 c3         1 872       0.111000
     19 N28          3.1570    -0.4000     2.2470 ns         1 872      -0.510900
     20 C29          3.3680     0.6810     3.0820 c          1 872       0.554000
     21 C30          2.4310     1.9050     2.8820 c3         1 872       0.035700
     22 C37          2.6670     3.0870     3.8720 c3         1 872      -0.142400
     23 O39          4.2990     0.6670     3.8730 o          1 872      -0.531000
     24 F41          4.3110    -0.9020    -5.5550 f          1 872      -0.153000
     25 C42          1.6100     4.2130     3.8260 c3         1 872       0.303000
     26 F45          1.6600     4.8980     2.6620 f          1 872      -0.120000
     27 F46          1.8200     5.0940     4.8290 f          1 872      -0.120000
     28 F47          0.3590     3.7170     3.9690 f          1 872      -0.120000
     29 H1           2.1780     0.5690    -5.1330 ha         1 872       0.153000
     30 H4           6.4490     2.4980    -3.4200 ha         1 872       0.146000
     31 H111         3.4220     4.7280    -3.1230 hc         1 872       0.069200
     32 H112         5.1620     4.7400    -3.2700 hc         1 872       0.069200
     33 H12          5.3700     3.4110    -1.1630 h1         1 872       0.076700
     34 H151         2.3380     3.8880    -0.7790 hc         1 872       0.068200
     35 H152         2.9830     2.4040    -1.2720 hc         1 872       0.068200
     36 H201         4.8270     5.2050     0.2560 hn         1 872       0.408500
     37 H202         3.7610     5.8450    -0.7710 hn         1 872       0.408500
     38 H251         0.9780     2.1930    -0.2170 h1         1 872       0.063700
     39 H252         0.3090     1.6750     1.3180 h1         1 872       0.063700
     40 H261         2.3920     0.1410    -0.3350 hc         1 872       0.060700
     41 H262         0.6910    -0.2580    -0.1540 hc         1 872       0.060700
     42 H271         1.0700    -0.6580     2.3240 h1         1 872       0.046200
     43 H272         1.9360    -1.7630     1.2480 h1         1 872       0.046200
     44 HN28         3.8400    -1.1450     2.3280 hn         1 872       0.318500
     45 H30          1.4500     1.5070     3.1720 h1         1 872       0.069700
     46 H371         3.6570     3.5240     3.7050 hc         1 872       0.107200
     47 H372         2.6840     2.6840     4.8910 hc         1 872       0.107200
@<TRIPOS>BOND
     1     1     2 ar  
     2     1     6 ar  
     3     1    29 1   
     4     2     3 ar  
     5     2     8 1   
     6     3     4 ar  
     7     3     9 1   
     8     4     5 ar  
     9     4    30 1   
    10     5     6 ar  
    11     5     7 1   
    12     6    24 1   
    13     9    10 1   
    14     9    31 1   
    15     9    32 1   
    16    10    11 1   
    17    10    14 1   
    18    10    33 1   
    19    11    12 1   
    20    11    34 1   
    21    11    35 1   
    22    12    13 1   
    23    12    15 2   
    24    13    16 1   
    25    13    21 1   
    26    14    36 1   
    27    14    37 1   
    28    16    17 1   
    29    16    38 1   
    30    16    39 1   
    31    17    18 1   
    32    17    40 1   
    33    17    41 1   
    34    18    19 1   
    35    18    42 1   
    36    18    43 1   
    37    19    20 1   
    38    19    44 1   
    39    20    21 1   
    40    20    23 2   
    41    21    22 1   
    42    21    45 1   
    43    22    25 1   
    44    22    46 1   
    45    22    47 1   
    46    25    26 1   
    47    25    27 1   
    48    25    28 1   
@<TRIPOS>SUBSTRUCTURE
     1 872         1 TEMP              0 ****  ****    0 ROOT
