@<TRIPOS>MOLECULE
873
   43    45     1     0     0
SMALL
No Charge or Current Charge


@<TRIPOS>ATOM
      1 C11          4.0480    -0.9250     0.3030 ca         1 873       0.182400
      2 C12          3.7310     0.3590    -0.1700 ca         1 873      -0.199600
      3 C13          4.6760     1.1080    -0.9060 ca         1 873      -0.040000
      4 C14          5.9460     0.5740    -1.1710 ca         1 873      -0.135000
      5 C17          2.3850     0.9050     0.1160 c          1 873       0.584600
      6 C15          6.2730    -0.7070    -0.7040 ca         1 873      -0.076000
      7 C16          5.3270    -1.4460     0.0270 ca         1 873      -0.104000
      8 N10          3.1700    -1.7310     1.0380 nc         1 873      -0.621100
      9 C09          1.9750    -1.1730     1.2700 cd         1 873       0.504800
     10 N08          1.5490     0.0800     0.8590 n          1 873      -0.324300
     11 C07          0.2010     0.5710     1.2520 c3         1 873       0.049000
     12 C06         -0.8890     0.3190     0.1800 c3         1 873       0.153300
     13 O19         -0.5970     1.1100    -0.9850 oh         1 873      -0.646000
     14 C05         -2.3050     0.6790     0.6920 c3         1 873      -0.099400
     15 C04         -3.4670     0.2630    -0.2560 c6         1 873       0.176500
     16 N03         -3.5510    -1.2230    -0.3180 n7         1 873      -0.845400
     17 C02         -4.5570    -1.6860    -1.3030 c6         1 873       0.151800
     18 C20         -4.8470     0.8740     0.1790 c6         1 873       0.134300
     19 O22         -5.2060     0.4810     1.5180 oh         1 873      -0.667000
     20 C21         -5.9490     0.4130    -0.8120 c6         1 873      -0.112400
     21 C01         -5.9650    -1.1330    -0.9610 c6         1 873      -0.110400
     22 H1           4.4290     2.1030    -1.2730 ha         1 873       0.134000
     23 H2           6.6730     1.1510    -1.7380 ha         1 873       0.118000
     24 H3           7.2560    -1.1280    -0.9060 ha         1 873       0.116000
     25 H4           5.5890    -2.4380     0.3850 ha         1 873       0.133000
     26 H5           1.2520    -1.7460     1.8380 h5         1 873       0.045800
     27 H6          -0.0970     0.0620     2.1780 h1         1 873       0.068700
     28 H7           0.2480     1.6430     1.4890 h1         1 873       0.068700
     29 H8          -0.8740    -0.7520    -0.0710 h1         1 873       0.091700
     30 H9           0.2880     1.5250    -0.8340 ho         1 873       0.447000
     31 H10         -2.4520     0.2130     1.6740 hc         1 873       0.052700
     32 H11         -2.3450     1.7620     0.8660 hc         1 873       0.052700
     33 H12         -3.2300     0.6520    -1.2590 h1         1 873       0.074700
     34 H13         -3.8650    -1.5300     0.6100 hn         1 873       0.412000
     35 H15         -4.2660    -1.3550    -2.3120 h1         1 873       0.054200
     36 H16         -4.5880    -2.7860    -1.3130 h1         1 873       0.054200
     37 H17         -4.7730     1.9710     0.1270 h1         1 873       0.036700
     38 H18         -6.1020     0.8450     1.6870 ho         1 873       0.444000
     39 H19         -6.9350     0.7750    -0.4890 hc         1 873       0.046700
     40 H20         -5.7620     0.8700    -1.7940 hc         1 873       0.046700
     41 H21         -6.6770    -1.4260    -1.7450 hc         1 873       0.047200
     42 H22         -6.3240    -1.5940    -0.0310 hc         1 873       0.047200
     43 O18          2.0130     1.9950    -0.3030 o          1 873      -0.549000
@<TRIPOS>BOND
     1     1     2 ar  
     2     1     7 ar  
     3     1     8 1   
     4     2     3 ar  
     5     2     5 1   
     6     3     4 ar  
     7     3    22 1   
     8     4     6 ar  
     9     4    23 1   
    10     5    10 1   
    11     5    43 2   
    12     6     7 ar  
    13     6    24 1   
    14     7    25 1   
    15     8     9 2   
    16     9    10 1   
    17     9    26 1   
    18    10    11 1   
    19    11    12 1   
    20    11    27 1   
    21    11    28 1   
    22    12    13 1   
    23    12    14 1   
    24    12    29 1   
    25    13    30 1   
    26    14    15 1   
    27    14    31 1   
    28    14    32 1   
    29    15    16 1   
    30    15    18 1   
    31    15    33 1   
    32    16    17 1   
    33    16    34 1   
    34    17    21 1   
    35    17    35 1   
    36    17    36 1   
    37    18    19 1   
    38    18    20 1   
    39    18    37 1   
    40    19    38 1   
    41    20    21 1   
    42    20    39 1   
    43    20    40 1   
    44    21    41 1   
    45    21    42 1   
@<TRIPOS>SUBSTRUCTURE
     1 873         1 TEMP              0 ****  ****    0 ROOT
