@<TRIPOS>MOLECULE
873
   43    45     1     0     0
SMALL
bcc


@<TRIPOS>ATOM
      1 C11          3.9320    -0.9240     0.1640 ca         1 873       0.182400
      2 C12          3.6490     0.4290    -0.0730 ca         1 873      -0.199600
      3 C13          4.6000     1.2500    -0.6880 ca         1 873      -0.058000
      4 C14          5.8190     0.7290    -1.0610 ca         1 873      -0.153000
      5 C17          2.3520     0.9720     0.3180 c          1 873       0.727100
      6 C15          6.1040    -0.6210    -0.8280 ca         1 873      -0.094000
      7 C16          5.1760    -1.4400    -0.2240 ca         1 873      -0.122000
      8 N10          3.0220    -1.7590     0.7700 nc         1 873      -0.621100
      9 C09          1.8980    -1.2470     1.1070 cd         1 873       0.504800
     10 N08          1.5190     0.0490     0.9280 n          1 873      -0.391300
     11 C07          0.1710     0.4380     1.3230 c3         1 873       0.049000
     12 C06         -0.8600     0.1120     0.2410 c3         1 873       0.130100
     13 O19         -0.4650     0.5980    -1.0200 oh         1 873      -0.583800
     14 C05         -2.2290     0.6250     0.6700 c3         1 873      -0.099400
     15 C04         -3.3560     0.1790    -0.2560 c6         1 873       0.176500
     16 N03         -3.5280    -1.2650    -0.1700 n7         1 873      -0.790200
     17 C02         -4.5670    -1.7520    -1.0660 c6         1 873       0.151800
     18 C20         -4.6520     0.9560    -0.0120 c6         1 873       0.111100
     19 O22         -5.0130     0.7780     1.3440 oh         1 873      -0.604800
     20 C21         -5.7400     0.4570    -0.9610 c6         1 873      -0.112400
     21 C01         -5.9120    -1.0560    -0.8720 c6         1 873      -0.110400
     22 H1           4.3720     2.2920    -0.8670 ha         1 873       0.152000
     23 H2           6.5580     1.3620    -1.5350 ha         1 873       0.136000
     24 H3           7.0620    -1.0250    -1.1270 ha         1 873       0.134000
     25 H4           5.3880    -2.4850    -0.0380 ha         1 873       0.151000
     26 H5           1.1570    -1.8730     1.5910 h5         1 873       0.045800
     27 H6          -0.0830    -0.0930     2.2420 h1         1 873       0.068700
     28 H7           0.1730     1.5010     1.5560 h1         1 873       0.068700
     29 H8          -0.9140    -0.9750     0.1290 h1         1 873       0.091700
     30 H9          -0.4260     1.5600    -0.9810 ho         1 873       0.408000
     31 H10         -2.4330     0.2840     1.6910 hc         1 873       0.052700
     32 H11         -2.2030     1.7200     0.7160 hc         1 873       0.052700
     33 H12         -3.0580     0.4080    -1.2870 h1         1 873       0.074700
     34 H13         -3.7830    -1.5040     0.7820 hn         1 873       0.356800
     35 H15         -4.2250    -1.6010    -2.0960 h1         1 873       0.054200
     36 H16         -4.6690    -2.8300    -0.9250 h1         1 873       0.054200
     37 H17         -4.4610     2.0190    -0.2230 h1         1 873       0.036700
     38 H18         -5.8890     1.1530     1.4770 ho         1 873       0.405000
     39 H19         -6.6840     0.9720    -0.7540 hc         1 873       0.046700
     40 H20         -5.4560     0.7340    -1.9810 hc         1 873       0.046700
     41 H21         -6.6270    -1.4020    -1.6230 hc         1 873       0.047200
     42 H22         -6.3240    -1.3300     0.1030 hc         1 873       0.047200
     43 O18          2.0130     2.1300     0.1500 o          1 873      -0.624500
@<TRIPOS>BOND
     1     1     2 ar  
     2     1     7 ar  
     3     1     8 1   
     4     2     3 ar  
     5     2     5 1   
     6     3     4 ar  
     7     3    22 1   
     8     4     6 ar  
     9     4    23 1   
    10     5    10 1   
    11     5    43 2   
    12     6     7 ar  
    13     6    24 1   
    14     7    25 1   
    15     8     9 2   
    16     9    10 1   
    17     9    26 1   
    18    10    11 1   
    19    11    12 1   
    20    11    27 1   
    21    11    28 1   
    22    12    13 1   
    23    12    14 1   
    24    12    29 1   
    25    13    30 1   
    26    14    15 1   
    27    14    31 1   
    28    14    32 1   
    29    15    16 1   
    30    15    18 1   
    31    15    33 1   
    32    16    17 1   
    33    16    34 1   
    34    17    21 1   
    35    17    35 1   
    36    17    36 1   
    37    18    19 1   
    38    18    20 1   
    39    18    37 1   
    40    19    38 1   
    41    20    21 1   
    42    20    39 1   
    43    20    40 1   
    44    21    41 1   
    45    21    42 1   
@<TRIPOS>SUBSTRUCTURE
     1 873         1 TEMP              0 ****  ****    0 ROOT
