@<TRIPOS>MOLECULE
874
   45    47     1     0     0
SMALL
abcg2


@<TRIPOS>ATOM
      1 C24          3.0800     1.1030     1.1610 c5         1 874       0.155300
      2 C23          4.0290     0.9120     0.0200 ca         1 874      -0.100300
      3 C22          5.3920     1.1600    -0.0200 ca         1 874      -0.091500
      4 C17          1.9090     0.2350    -0.8010 c5         1 874       0.155300
      5 C20          5.4160     0.4000    -2.3130 ca         1 874      -0.108500
      6 C10         -2.8600    -0.9840    -0.3830 ca         1 874       0.204100
      7 N16          1.8170     0.6360     0.6000 n          1 874      -0.406800
      8 C21          6.0830     0.8990    -1.1970 ca         1 874      -0.108500
      9 C19          4.0490     0.1550    -2.2680 ca         1 874      -0.091500
     10 C01         -1.4900    -4.1410     1.2770 c3         1 874      -0.090100
     11 C03         -3.6970    -3.1320     1.9040 c3         1 874      -0.090100
     12 C04         -2.1170    -1.8110     0.4730 ca         1 874      -0.210300
     13 C05         -0.9530    -1.2820     1.0090 ca         1 874       0.007000
     14 C06         -0.5090    -0.0020     0.7100 ca         1 874      -0.225600
     15 C07         -1.2680     0.8010    -0.1360 ca         1 874       0.229100
     16 O08         -0.8140     2.0390    -0.3960 oh         1 874      -0.547100
     17 C09         -2.4560     0.3160    -0.6930 ca         1 874      -0.232300
     18 C12         -3.2440     1.1660    -1.6570 c3         1 874       0.219900
     19 O13         -3.2320     2.5150    -1.1980 oh         1 874      -0.678000
     20 C18          3.3660     0.4160    -1.0910 ca         1 874      -0.100300
     21 H1           3.3650     0.5170     2.0390 h1         1 874       0.063200
     22 H2           3.0140     2.1480     1.4780 h1         1 874       0.063200
     23 H3           5.9120     1.5470     0.8480 ha         1 874       0.116500
     24 H4           1.5860    -0.8000    -0.9430 h1         1 874       0.063200
     25 H5           1.2910     0.8660    -1.4450 h1         1 874       0.063200
     26 H6           5.9680     0.2000    -3.2230 ha         1 874       0.113500
     27 H7           7.1480     1.0830    -1.2470 ha         1 874       0.113500
     28 H8           3.5330    -0.2320    -3.1370 ha         1 874       0.116500
     29 H9          -1.0590    -3.8400     2.2330 hc         1 874       0.038700
     30 H10         -1.8900    -5.1470     1.4080 hc         1 874       0.038700
     31 H11         -0.6850    -4.1930     0.5430 hc         1 874       0.038700
     32 H12         -3.0350    -3.6660    -0.0670 hc         1 874       0.033700
     33 H13         -4.5460    -2.5180     1.5970 hc         1 874       0.038700
     34 H14         -4.0780    -4.1290     2.1330 hc         1 874       0.038700
     35 H15         -3.2980    -2.7030     2.8250 hc         1 874       0.038700
     36 H16         -0.3560    -1.8880     1.6800 ha         1 874       0.126000
     37 H17         -1.5560     2.5560    -0.7740 ho         1 874       0.501000
     38 H18         -4.1920    -2.3220    -0.7460 ho         1 874       0.475000
     39 H19         -2.7950     1.1010    -2.6550 h1         1 874       0.043200
     40 H20         -4.2710     0.8080    -1.7420 h1         1 874       0.043200
     41 H21         -3.4900     3.0870    -1.9280 ho         1 874       0.455000
     42 C14          0.7250     0.5250     1.3690 c          1 874       0.640700
     43 O11         -4.0060    -1.4030    -0.9630 oh         1 874      -0.546100
     44 C02         -2.6050    -3.2000     0.8320 c3         1 874      -0.004400
     45 O15          0.7370     0.8080     2.5610 o          1 874      -0.600100
@<TRIPOS>BOND
     1     1     2 1   
     2     1     7 1   
     3     1    21 1   
     4     1    22 1   
     5     2     3 ar  
     6     2    20 ar  
     7     3     8 ar  
     8     3    23 1   
     9     4     7 1   
    10     4    20 1   
    11     4    24 1   
    12     4    25 1   
    13     5     8 ar  
    14     5     9 ar  
    15     5    26 1   
    16     6    12 ar  
    17     6    17 ar  
    18     6    43 1   
    19     7    42 1   
    20     8    27 1   
    21     9    20 ar  
    22     9    28 1   
    23    10    29 1   
    24    10    30 1   
    25    10    31 1   
    26    10    44 1   
    27    11    33 1   
    28    11    34 1   
    29    11    35 1   
    30    11    44 1   
    31    12    13 ar  
    32    12    44 1   
    33    13    14 ar  
    34    13    36 1   
    35    14    15 ar  
    36    14    42 1   
    37    15    16 1   
    38    15    17 ar  
    39    16    37 1   
    40    17    18 1   
    41    18    19 1   
    42    18    39 1   
    43    18    40 1   
    44    19    41 1   
    45    32    44 1   
    46    38    43 1   
    47    42    45 2   
@<TRIPOS>SUBSTRUCTURE
     1 874         1 TEMP              0 ****  ****    0 ROOT
