@<TRIPOS>MOLECULE
874
   45    47     1     0     0
SMALL
No Charge or Current Charge


@<TRIPOS>ATOM
      1 C24          3.0540     1.2870     1.2190 c5         1 874       0.155300
      2 C23          4.0240     1.0290     0.0960 ca         1 874      -0.100300
      3 C22          5.4040     1.2890     0.0950 ca         1 874      -0.091500
      4 C17          1.9270     0.2850    -0.7860 c5         1 874       0.155300
      5 C20          5.5210     0.4060    -2.1810 ca         1 874      -0.108500
      6 C10         -2.9490    -0.9660    -0.4360 ca         1 874       0.204100
      7 N16          1.7720     0.7990     0.6150 n          1 874      -0.406800
      8 C21          6.1540     0.9730    -1.0540 ca         1 874      -0.108500
      9 C19          4.1350     0.1530    -2.1600 ca         1 874      -0.091500
     10 C01         -1.8590    -4.2600     0.6310 c3         1 874      -0.090100
     11 C03         -3.1960    -3.1430     2.5010 c3         1 874      -0.090100
     12 C04         -2.3110    -1.7550     0.5520 ca         1 874      -0.210300
     13 C05         -1.1310    -1.2690     1.1460 ca         1 874       0.007000
     14 C06         -0.5790    -0.0380     0.7610 ca         1 874      -0.225600
     15 C07         -1.2460     0.7520    -0.1910 ca         1 874       0.229100
     16 O08         -0.7770     1.9890    -0.4880 oh         1 874      -0.547100
     17 C09         -2.4390     0.3010    -0.8020 ca         1 874      -0.232300
     18 C12         -3.1780     1.1120    -1.8870 c3         1 874       0.219900
     19 O13         -2.9530     2.5270    -1.7830 oh         1 874      -0.678000
     20 C18          3.4040     0.4740    -1.0050 ca         1 874      -0.100300
     21 H1           3.3300     0.7200     2.1180 h1         1 874       0.063200
     22 H2           3.0010     2.3550     1.4700 h1         1 874       0.063200
     23 H3           5.8860     1.7250     0.9670 ha         1 874       0.116500
     24 H4           1.6420    -0.7720    -0.8690 h1         1 874       0.063200
     25 H5           1.3460     0.8710    -1.5090 h1         1 874       0.063200
     26 H6           6.1030     0.1640    -3.0670 ha         1 874       0.113500
     27 H7           7.2240     1.1680    -1.0740 ha         1 874       0.113500
     28 H8           3.6410    -0.2840    -3.0250 ha         1 874       0.116500
     29 H9          -0.9130    -4.1530     1.1750 hc         1 874       0.038700
     30 H10         -2.2850    -5.2400     0.8790 hc         1 874       0.038700
     31 H11         -1.6410    -4.2470    -0.4430 hc         1 874       0.038700
     32 H12         -3.7820    -3.3690     0.4750 hc         1 874       0.033700
     33 H13         -3.9050    -2.3400     2.7370 hc         1 874       0.038700
     34 H14         -3.6600    -4.0970     2.7800 hc         1 874       0.038700
     35 H15         -2.3030    -3.0070     3.1210 hc         1 874       0.038700
     36 H16         -0.6190    -1.8620     1.9020 ha         1 874       0.126000
     37 H17         -1.5080     2.4000    -1.0260 ho         1 874       0.501000
     38 H18         -4.2710    -2.3140    -0.6850 ho         1 874       0.475000
     39 H19         -2.8530     0.7510    -2.8720 h1         1 874       0.043200
     40 H20         -4.2570     0.9210    -1.8150 h1         1 874       0.043200
     41 H21         -3.5700     2.9560    -2.4220 ho         1 874       0.455000
     42 C14          0.6910     0.4090     1.4260 c          1 874       0.640700
     43 O11         -4.0740    -1.4290    -1.0520 oh         1 874      -0.546100
     44 C02         -2.8480    -3.1300     0.9950 c3         1 874      -0.004400
     45 O15          0.7650     0.4650     2.6480 o          1 874      -0.600100
@<TRIPOS>BOND
     1     1     2 1   
     2     1     7 1   
     3     1    21 1   
     4     1    22 1   
     5     2     3 ar  
     6     2    20 ar  
     7     3     8 ar  
     8     3    23 1   
     9     4     7 1   
    10     4    20 1   
    11     4    24 1   
    12     4    25 1   
    13     5     8 ar  
    14     5     9 ar  
    15     5    26 1   
    16     6    12 ar  
    17     6    17 ar  
    18     6    43 1   
    19     7    42 1   
    20     8    27 1   
    21     9    20 ar  
    22     9    28 1   
    23    10    29 1   
    24    10    30 1   
    25    10    31 1   
    26    10    44 1   
    27    11    33 1   
    28    11    34 1   
    29    11    35 1   
    30    11    44 1   
    31    12    13 ar  
    32    12    44 1   
    33    13    14 ar  
    34    13    36 1   
    35    14    15 ar  
    36    14    42 1   
    37    15    16 1   
    38    15    17 ar  
    39    16    37 1   
    40    17    18 1   
    41    18    19 1   
    42    18    39 1   
    43    18    40 1   
    44    19    41 1   
    45    32    44 1   
    46    38    43 1   
    47    42    45 2   
@<TRIPOS>SUBSTRUCTURE
     1 874         1 TEMP              0 ****  ****    0 ROOT
