@<TRIPOS>MOLECULE
875
   60    62     1     0     0
SMALL
No Charge or Current Charge


@<TRIPOS>ATOM
      1 PA         -22.1510   -17.3460    40.3170 p5         1 875       1.494800
      2 O1A        -21.8950   -17.7960    41.7160 o          1 875      -0.854500
      3 O2A        -20.9200   -16.7120    39.7620 o          1 875      -0.854500
      4 O5B        -22.6380   -18.5710    39.3840 os         1 875      -0.623400
      5 C5B        -22.9550   -19.8790    39.9060 c3         1 875       0.234600
      6 C4B        -24.4510   -20.0220    40.3260 c5         1 875       0.151300
      7 O4B        -24.7100   -19.3970    41.6060 os         1 875      -0.459000
      8 C3B        -25.5160   -19.4630    39.3110 c5         1 875       0.137300
      9 O3B        -26.5430   -20.4140    38.9990 oh         1 875      -0.753000
     10 C2B        -26.1870   -18.3170    40.1210 c5         1 875       0.094300
     11 O2B        -27.5520   -18.1040    39.6790 oh         1 875      -0.761000
     12 C1B        -26.0450   -18.8780    41.5740 c5         1 875       0.297300
     13 N9A        -26.2060   -17.9430    42.6820 na         1 875      -0.286300
     14 C8A        -25.2530   -16.9980    43.0820 cc         1 875       0.470700
     15 N7A        -25.7780   -16.1200    43.9700 nd         1 875      -0.628100
     16 C5A        -27.0840   -16.5930    44.1530 ca         1 875      -0.090600
     17 C6A        -28.1100   -16.1040    44.9910 ca         1 875       0.436900
     18 N6A        -27.9390   -15.0380    45.8190 nv         1 875      -1.078900
     19 N1A        -29.3220   -16.6820    45.0140 nb         1 875      -0.303000
     20 C2A        -29.4880   -17.7510    44.1980 ca         1 875       0.154900
     21 N3A        -28.5600   -18.2930    43.3730 nb         1 875      -0.217000
     22 C4A        -27.3550   -17.6900    43.3740 ca         1 875       0.116500
     23 C1         -30.4140   -15.1140    39.5880 c3         1 875       0.155800
     24 C2         -29.2600   -15.1190    40.6490 c3         1 875       0.171300
     25 O2         -29.5780   -14.2550    41.7570 oh         1 875      -0.738000
     26 C3         -27.8860   -14.6700    40.0430 c3         1 875       0.136300
     27 O3         -27.5250   -15.5110    38.9300 oh         1 875      -0.724000
     28 C4         -26.6960   -14.7070    41.0570 c3         1 875       0.106300
     29 O4         -27.0110   -14.0470    42.3050 oh         1 875      -0.769000
     30 C5         -25.3790   -14.1260    40.4620 c3         1 875       0.217600
     31 O5         -24.9900   -14.9310    39.3330 os         1 875      -0.625400
     32 P          -23.4420   -15.3570    39.1710 p5         1 875       1.481800
     33 O1P        -23.2570   -15.9000    37.7950 o          1 875      -0.841000
     34 O2P        -22.5750   -14.1810    39.4750 o          1 875      -0.841000
     35 O3P        -23.4540   -16.4590    40.2950 os         1 875      -0.741800
     36 H2         -22.7570   -20.6290    39.1300 h1         1 875       0.034200
     37 H3         -22.3160   -20.1370    40.7610 h1         1 875       0.034200
     38 H4         -24.6240   -21.0980    40.4630 h1         1 875       0.053700
     39 H5         -25.0430   -19.0760    38.3960 h1         1 875       0.101700
     40 H6         -27.3590   -19.8530    39.1000 ho         1 875       0.515000
     41 H7         -25.5990   -17.4000    40.0200 h1         1 875       0.109700
     42 H8         -27.6180   -17.1540    39.3610 ho         1 875       0.557000
     43 H9         -26.7610   -19.6940    41.7370 h2         1 875       0.084700
     44 H10        -24.2470   -16.9810    42.6750 h5         1 875       0.163800
     45 H11        -28.7600   -14.5750    46.1980 hn         1 875       0.497000
     46 H12        -27.0840   -14.4960    45.7340 hn         1 875       0.497000
     47 H13        -30.4670   -18.2260    44.2090 h5         1 875       0.027100
     48 H14        -32.3920   -15.6560    39.3170 hn         1 875       0.383500
     49 H15        -31.6470   -16.5260    40.4580 hn         1 875       0.383500
     50 H19        -29.1400   -16.1480    41.0170 h1         1 875       0.036700
     51 H20        -28.6770   -14.0310    42.1320 ho         1 875       0.523000
     52 H22        -26.5680   -15.2760    38.7470 ho         1 875       0.517000
     53 H23        -26.5150   -15.7650    41.2570 h1         1 875       0.064700
     54 H24        -26.5560   -14.5790    43.0190 ho         1 875       0.539000
     55 H25        -24.6060   -14.1310    41.2430 h1         1 875       0.040700
     56 H26        -25.5420   -13.0860    40.1520 h1         1 875       0.040700
     57 H17        -30.1350   -15.7780    38.7580 h1         1 875       0.040200
     58 N10        -31.7390   -15.5680    40.1040 n8         1 875      -0.994200
     59 H21        -27.9970   -13.6350    39.6920 h1         1 875       0.043700
     60 H18        -30.5260   -14.1000    39.1780 h1         1 875       0.040200
@<TRIPOS>BOND
     1     1     2 1   
     2     1     3 1   
     3     1     4 1   
     4     1    35 1   
     5     4     5 1   
     6     5     6 1   
     7     5    36 1   
     8     5    37 1   
     9     6     7 1   
    10     6     8 1   
    11     6    38 1   
    12     7    12 1   
    13     8     9 1   
    14     8    10 1   
    15     8    39 1   
    16     9    40 1   
    17    10    11 1   
    18    10    12 1   
    19    10    41 1   
    20    11    42 1   
    21    12    13 1   
    22    12    43 1   
    23    13    14 1   
    24    13    22 1   
    25    14    15 2   
    26    14    44 1   
    27    15    16 1   
    28    16    17 ar  
    29    16    22 ar  
    30    17    18 1   
    31    17    19 ar  
    32    18    45 1   
    33    18    46 1   
    34    19    20 ar  
    35    20    21 ar  
    36    20    47 1   
    37    21    22 ar  
    38    23    24 1   
    39    23    57 1   
    40    23    58 1   
    41    23    60 1   
    42    24    25 1   
    43    24    26 1   
    44    24    50 1   
    45    25    51 1   
    46    26    27 1   
    47    26    28 1   
    48    26    59 1   
    49    27    52 1   
    50    28    29 1   
    51    28    30 1   
    52    28    53 1   
    53    29    54 1   
    54    30    31 1   
    55    30    55 1   
    56    30    56 1   
    57    31    32 1   
    58    32    33 1   
    59    32    34 1   
    60    32    35 1   
    61    48    58 1   
    62    49    58 1   
@<TRIPOS>SUBSTRUCTURE
     1 875         1 TEMP              0 ****  ****    0 ROOT
