@<TRIPOS>MOLECULE
875
   60    62     1     0     0
SMALL
abcg2


@<TRIPOS>ATOM
      1 PA         -22.4310   -17.1830    40.5020 p5         1 875       1.494800
      2 O1A        -22.5460   -17.3500    41.9840 o          1 875      -0.854500
      3 O2A        -21.0880   -17.0190    39.8740 o          1 875      -0.854500
      4 O5B        -23.2520   -18.3630    39.7480 os         1 875      -0.623400
      5 C5B        -23.2540   -19.7230    40.1730 c3         1 875       0.234600
      6 C4B        -24.6770   -20.2200    40.3470 c5         1 875       0.151300
      7 O4B        -25.1990   -19.8060    41.6410 os         1 875      -0.459000
      8 C3B        -25.6530   -19.6760    39.3030 c5         1 875       0.137300
      9 O3B        -26.6240   -20.6760    39.0070 oh         1 875      -0.753000
     10 C2B        -26.3000   -18.5030    40.0440 c5         1 875       0.094300
     11 O2B        -27.5510   -18.1310    39.5190 oh         1 875      -0.761000
     12 C1B        -26.3980   -19.0820    41.4600 c5         1 875       0.297300
     13 N9A        -26.5260   -18.0900    42.5060 na         1 875      -0.286300
     14 C8A        -25.5890   -17.1630    42.8960 cc         1 875       0.470700
     15 N7A        -26.0680   -16.2970    43.7660 nd         1 875      -0.628100
     16 C5A        -27.3880   -16.6740    43.9590 ca         1 875      -0.090600
     17 C6A        -28.4380   -16.1310    44.7240 ca         1 875       0.436900
     18 N6A        -28.2890   -15.0500    45.5030 nv         1 875      -1.078900
     19 N1A        -29.6400   -16.7380    44.6670 nb         1 875      -0.303000
     20 C2A        -29.7870   -17.8140    43.8880 ca         1 875       0.154900
     21 N3A        -28.8770   -18.4020    43.1120 nb         1 875      -0.217000
     22 C4A        -27.6900   -17.7900    43.1830 ca         1 875       0.116500
     23 C1         -29.9730   -15.4010    40.1040 c3         1 875       0.155800
     24 C2         -28.7590   -15.0800    40.9620 c3         1 875       0.171300
     25 O2         -29.1490   -14.1280    41.9500 oh         1 875      -0.738000
     26 C3         -27.5790   -14.5300    40.1500 c3         1 875       0.136300
     27 O3         -27.3540   -15.3950    39.0220 oh         1 875      -0.724000
     28 C4         -26.2710   -14.4510    40.9630 c3         1 875       0.106300
     29 O4         -26.4750   -13.8600    42.2510 oh         1 875      -0.769000
     30 C5         -25.1870   -13.6490    40.2520 c3         1 875       0.217600
     31 O5         -24.8530   -14.2790    39.0020 os         1 875      -0.625400
     32 P          -23.3750   -14.9500    38.7980 p5         1 875       1.481800
     33 O1P        -23.4480   -15.7150    37.5230 o          1 875      -0.841000
     34 O2P        -22.3260   -13.9120    39.0140 o          1 875      -0.841000
     35 O3P        -23.4060   -15.9550    40.0840 os         1 875      -0.741800
     36 H2         -22.7610   -20.3230    39.4050 h1         1 875       0.034200
     37 H3         -22.7150   -19.8400    41.1140 h1         1 875       0.034200
     38 H4         -24.6720   -21.3120    40.3240 h1         1 875       0.053700
     39 H5         -25.1420   -19.3520    38.3950 h1         1 875       0.101700
     40 H6         -27.3860   -20.2200    38.6200 ho         1 875       0.515000
     41 H7         -25.6050   -17.6640    40.0460 h1         1 875       0.109700
     42 H8         -27.5160   -17.1760    39.2980 ho         1 875       0.557000
     43 H9         -27.2790   -19.7230    41.5400 h2         1 875       0.084700
     44 H10        -24.5720   -17.1860    42.5200 h5         1 875       0.163800
     45 H11        -29.0920   -14.6530    45.9620 hn         1 875       0.497000
     46 H12        -27.4270   -14.5320    45.5000 hn         1 875       0.497000
     47 H13        -30.7770   -18.2580    43.8830 h5         1 875       0.027100
     48 H14        -31.7860   -16.3250    40.2980 hn         1 875       0.383500
     49 H15        -30.6110   -17.0210    41.1720 hn         1 875       0.383500
     50 H19        -28.4290   -16.0070    41.4470 h1         1 875       0.036700
     51 H20        -28.3310   -13.8670    42.4050 ho         1 875       0.523000
     52 H22        -26.4700   -15.1790    38.6710 ho         1 875       0.517000
     53 H23        -25.9120   -15.4740    41.0860 h1         1 875       0.064700
     54 H24        -26.1610   -14.4990    42.9200 ho         1 875       0.539000
     55 H25        -24.3110   -13.5810    40.8960 h1         1 875       0.040700
     56 H26        -25.5430   -12.6390    40.0360 h1         1 875       0.040700
     57 H17        -29.6440   -15.9610    39.2250 h1         1 875       0.040200
     58 N10        -30.9870   -16.1200    40.8890 n8         1 875      -0.994200
     59 H21        -27.8500   -13.5290    39.7900 h1         1 875       0.043700
     60 H18        -30.4050   -14.4600    39.7530 h1         1 875       0.040200
@<TRIPOS>BOND
     1     1     2 1   
     2     1     3 1   
     3     1     4 1   
     4     1    35 1   
     5     4     5 1   
     6     5     6 1   
     7     5    36 1   
     8     5    37 1   
     9     6     7 1   
    10     6     8 1   
    11     6    38 1   
    12     7    12 1   
    13     8     9 1   
    14     8    10 1   
    15     8    39 1   
    16     9    40 1   
    17    10    11 1   
    18    10    12 1   
    19    10    41 1   
    20    11    42 1   
    21    12    13 1   
    22    12    43 1   
    23    13    14 1   
    24    13    22 1   
    25    14    15 2   
    26    14    44 1   
    27    15    16 1   
    28    16    17 ar  
    29    16    22 ar  
    30    17    18 1   
    31    17    19 ar  
    32    18    45 1   
    33    18    46 1   
    34    19    20 ar  
    35    20    21 ar  
    36    20    47 1   
    37    21    22 ar  
    38    23    24 1   
    39    23    57 1   
    40    23    58 1   
    41    23    60 1   
    42    24    25 1   
    43    24    26 1   
    44    24    50 1   
    45    25    51 1   
    46    26    27 1   
    47    26    28 1   
    48    26    59 1   
    49    27    52 1   
    50    28    29 1   
    51    28    30 1   
    52    28    53 1   
    53    29    54 1   
    54    30    31 1   
    55    30    55 1   
    56    30    56 1   
    57    31    32 1   
    58    32    33 1   
    59    32    34 1   
    60    32    35 1   
    61    48    58 1   
    62    49    58 1   
@<TRIPOS>SUBSTRUCTURE
     1 875         1 TEMP              0 ****  ****    0 ROOT
