@<TRIPOS>MOLECULE
876
   75    78     1     0     0
SMALL
No Charge or Current Charge


@<TRIPOS>ATOM
      1 C1          -0.7950    -0.5300    -1.5330 ca         1 876      -0.175000
      2 C2          -1.3740    -0.4920    -2.8080 ca         1 876      -0.133000
      3 C3          -0.5890    -0.3760    -3.9840 ca         1 876      -0.082500
      4 C4           0.8360    -0.3220    -3.8470 ca         1 876      -0.097500
      5 C5           1.3930    -0.3500    -2.5420 ca         1 876      -0.119000
      6 C6           0.5950    -0.4550    -1.3910 ca         1 876      -0.215300
      7 C7           1.2400    -0.4920    -0.0050 c3         1 876       0.009900
      8 C8           2.0350    -1.8050     0.2630 c3         1 876       0.049700
      9 C9           2.6500    -1.8810     1.6970 c          1 876       0.575100
     10 N10          3.2540    -0.7210     2.1440 ns         1 876      -0.520900
     11 N11          1.2650    -3.0280    -0.0750 ns         1 876      -0.458900
     12 C12          0.0620    -3.4010     0.4870 c          1 876       0.634100
     13 C13         -0.5540    -4.6570    -0.1210 c3         1 876      -0.178100
     14 O14         -0.4730    -2.7930     1.4030 o          1 876      -0.633100
     15 O15          2.6210    -2.8870     2.3960 o          1 876      -0.617100
     16 C16          3.8130    -0.5280     3.5010 c3         1 876       0.047700
     17 C17          4.9390     0.5400     3.5280 c3         1 876      -0.078400
     18 C18          4.6350     1.8920     2.8350 c3         1 876      -0.075400
     19 C19          3.4650     2.6950     3.4430 c3         1 876      -0.091400
     20 C20          2.1220     1.9450     3.4180 c3         1 876       0.100000
     21 N21          1.9800     0.9740     4.5260 n          1 876      -0.388800
     22 C22          2.6810    -0.2590     4.5450 c          1 876       0.569000
     23 C23          0.8620     1.2220     5.4660 c3         1 876       0.157300
     24 C24         -0.5040     1.1080     4.7950 ca         1 876      -0.180300
     25 O25          2.4260    -1.1070     5.3940 o          1 876      -0.602000
     26 P26         -1.5500    -0.3150    -5.5840 p5         1 876       1.188000
     27 C27         -1.4210     2.1730     4.8580 ca         1 876      -0.100000
     28 C28         -2.6660     2.0780     4.2110 ca         1 876      -0.110000
     29 C29         -3.0280     0.9190     3.4810 cp         1 876      -0.051000
     30 C30         -2.0940    -0.1450     3.4310 ca         1 876      -0.110000
     31 C31         -0.8520    -0.0540     4.0810 ca         1 876      -0.100000
     32 C32         -4.3490     0.8220     2.7800 cp         1 876      -0.053000
     33 C59         -4.4750     0.1330     1.5460 ca         1 876      -0.111500
     34 C60         -5.7140     0.0420     0.8870 ca         1 876      -0.116000
     35 C61         -6.8540     0.6390     1.4480 ca         1 876      -0.174000
     36 C62         -6.7550     1.3260     2.6680 ca         1 876      -0.116000
     37 C63         -5.5160     1.4170     3.3260 ca         1 876      -0.111500
     38 P69          2.0700    -0.2060    -5.2420 p5         1 876       1.189000
     39 O70          2.1290     1.2100    -5.7150 o          1 876      -0.904833
     40 O71          1.7170    -1.1100    -6.3750 o          1 876      -0.904833
     41 O72          3.4260    -0.5820    -4.7410 o          1 876      -0.904833
     42 O73         -1.0100     0.7170    -6.5160 o          1 876      -0.871833
     43 O74         -1.5030    -1.6660    -6.2220 o          1 876      -0.871833
     44 O75         -2.9780     0.0110    -5.2860 o          1 876      -0.871833
     45 H1          -1.4320    -0.6170    -0.6570 ha         1 876       0.030000
     46 H2          -2.4570    -0.5530    -2.8800 ha         1 876       0.103000
     47 H5           2.4710    -0.2900    -2.4190 ha         1 876       0.093000
     48 H71          1.9150     0.3660     0.0910 hc         1 876       0.016200
     49 H72A         0.4800    -0.3610     0.7750 hc         1 876       0.016200
     50 H8           2.9000    -1.7860    -0.4110 h1         1 876       0.081700
     51 H10          3.2820     0.0550     1.4950 hn         1 876       0.332500
     52 H11          1.6050    -3.6160    -0.8250 hn         1 876       0.320500
     53 H131        -1.5010    -4.9360     0.3530 hc         1 876       0.048700
     54 H132        -0.6720    -4.5080    -1.2010 hc         1 876       0.048700
     55 H133         0.1770    -5.4730    -0.0770 hc         1 876       0.048700
     56 H16          4.2760    -1.4760     3.8060 h1         1 876       0.064700
     57 H171         5.8230     0.1090     3.0410 hc         1 876       0.035200
     58 H172         5.2280     0.7250     4.5700 hc         1 876       0.035200
     59 H181         4.4450     1.7270     1.7670 hc         1 876       0.041700
     60 H182         5.5380     2.5130     2.8850 hc         1 876       0.041700
     61 H191         3.3540     3.6220     2.8670 hc         1 876       0.031700
     62 H192         3.7050     2.9920     4.4710 hc         1 876       0.031700
     63 H201         1.9610     1.4550     2.4510 h1         1 876       0.073700
     64 H202         1.3270     2.6970     3.5120 h1         1 876       0.073700
     65 H231         0.9840     2.2320     5.8780 h1         1 876       0.035200
     66 H232         0.9040     0.5300     6.3150 h1         1 876       0.035200
     67 H27         -1.1680     3.0820     5.3990 ha         1 876       0.106000
     68 H28         -3.3480     2.9230     4.2620 ha         1 876       0.118500
     69 H30         -2.3350    -1.0570     2.8910 ha         1 876       0.118500
     70 H31         -0.1570    -0.8890     4.0190 ha         1 876       0.106000
     71 H59         -3.6020    -0.3240     1.0870 ha         1 876       0.118000
     72 H60         -5.7870    -0.4880    -0.0600 ha         1 876       0.101500
     73 H61         -7.8120     0.5690     0.9390 ha         1 876       0.082000
     74 H62         -7.6370     1.7870     3.1060 ha         1 876       0.101500
     75 H63         -5.4630     1.9430     4.2760 ha         1 876       0.118000
@<TRIPOS>BOND
     1     1     2 ar  
     2     1     6 ar  
     3     1    45 1   
     4     2     3 ar  
     5     2    46 1   
     6     3     4 ar  
     7     3    26 1   
     8     4     5 ar  
     9     4    38 1   
    10     5     6 ar  
    11     5    47 1   
    12     6     7 1   
    13     7     8 1   
    14     7    48 1   
    15     7    49 1   
    16     8     9 1   
    17     8    11 1   
    18     8    50 1   
    19     9    10 1   
    20     9    15 2   
    21    10    16 1   
    22    10    51 1   
    23    11    12 1   
    24    11    52 1   
    25    12    13 1   
    26    12    14 2   
    27    13    53 1   
    28    13    54 1   
    29    13    55 1   
    30    16    17 1   
    31    16    22 1   
    32    16    56 1   
    33    17    18 1   
    34    17    57 1   
    35    17    58 1   
    36    18    19 1   
    37    18    59 1   
    38    18    60 1   
    39    19    20 1   
    40    19    61 1   
    41    19    62 1   
    42    20    21 1   
    43    20    63 1   
    44    20    64 1   
    45    21    22 1   
    46    21    23 1   
    47    22    25 2   
    48    23    24 1   
    49    23    65 1   
    50    23    66 1   
    51    24    27 ar  
    52    24    31 ar  
    53    26    42 1   
    54    26    43 1   
    55    26    44 1   
    56    27    28 ar  
    57    27    67 1   
    58    28    29 ar  
    59    28    68 1   
    60    29    30 ar  
    61    29    32 1   
    62    30    31 ar  
    63    30    69 1   
    64    31    70 1   
    65    32    33 ar  
    66    32    37 ar  
    67    33    34 ar  
    68    33    71 1   
    69    34    35 ar  
    70    34    72 1   
    71    35    36 ar  
    72    35    73 1   
    73    36    37 ar  
    74    36    74 1   
    75    37    75 1   
    76    38    39 1   
    77    38    40 1   
    78    38    41 1   
@<TRIPOS>SUBSTRUCTURE
     1 876         1 TEMP              0 ****  ****    0 ROOT
