@<TRIPOS>MOLECULE
876
   75    78     1     0     0
SMALL
abcg2


@<TRIPOS>ATOM
      1 C1          -0.9200    -0.5060    -1.3900 ca         1 876      -0.175000
      2 C2          -1.4880    -0.5380    -2.6560 ca         1 876      -0.133000
      3 C3          -0.7350    -0.5200    -3.8360 ca         1 876      -0.082500
      4 C4           0.6740    -0.4770    -3.7100 ca         1 876      -0.097500
      5 C5           1.2180    -0.4320    -2.4220 ca         1 876      -0.119000
      6 C6           0.4580    -0.4430    -1.2570 ca         1 876      -0.215300
      7 C7           1.1120    -0.3880     0.0950 c3         1 876       0.009900
      8 C8           1.9720    -1.6370     0.3840 c3         1 876       0.049700
      9 C9           2.5060    -1.6220     1.8170 c          1 876       0.575100
     10 N10          3.3060    -0.5750     2.1070 ns         1 876      -0.520900
     11 N11          1.3220    -2.8820     0.0790 ns         1 876      -0.458900
     12 C12          0.1190    -3.2740     0.5340 c          1 876       0.634100
     13 C13         -0.3720    -4.5850    -0.0320 c3         1 876      -0.178100
     14 O14         -0.5550    -2.6250     1.3190 o          1 876      -0.633100
     15 O15          2.2330    -2.4760     2.6410 o          1 876      -0.617100
     16 C16          3.9150    -0.4280     3.4100 c3         1 876       0.047700
     17 C17          4.9840     0.6640     3.4100 c3         1 876      -0.078400
     18 C18          4.5550     2.0260     2.8800 c3         1 876      -0.075400
     19 C19          3.3580     2.6420     3.5880 c3         1 876      -0.091400
     20 C20          2.0650     1.8450     3.4700 c3         1 876       0.100000
     21 N21          1.9550     0.7280     4.4030 n          1 876      -0.388800
     22 C22          2.8750    -0.2530     4.5250 c          1 876       0.569000
     23 C23          0.8550     0.8060     5.3500 c3         1 876       0.157300
     24 C24         -0.4760     0.8260     4.6410 ca         1 876      -0.180300
     25 O25          2.9160    -1.0070     5.4870 o          1 876      -0.602000
     26 P26         -1.7350    -0.6330    -5.4180 p5         1 876       1.188000
     27 C27         -1.4410     1.7740     4.9620 ca         1 876      -0.100000
     28 C28         -2.6620     1.8020     4.3030 ca         1 876      -0.110000
     29 C29         -2.9490     0.8870     3.2910 cp         1 876      -0.051000
     30 C30         -1.9790    -0.0680     2.9760 ca         1 876      -0.110000
     31 C31         -0.7660    -0.1010     3.6430 ca         1 876      -0.100000
     32 C32         -4.2310     0.9310     2.5600 cp         1 876      -0.053000
     33 C59         -4.2780     0.6700     1.1900 ca         1 876      -0.111500
     34 C60         -5.4790     0.7080     0.4970 ca         1 876      -0.116000
     35 C61         -6.6590     1.0120     1.1640 ca         1 876      -0.174000
     36 C62         -6.6260     1.2770     2.5270 ca         1 876      -0.116000
     37 C63         -5.4240     1.2370     3.2180 ca         1 876      -0.111500
     38 P69          1.9380    -0.3970    -5.0930 p5         1 876       1.189000
     39 O70          1.9250     1.0580    -5.5720 o          1 876      -0.904833
     40 O71          1.5490    -1.4480    -6.1300 o          1 876      -0.904833
     41 O72          3.2640    -0.7510    -4.3870 o          1 876      -0.904833
     42 O73         -1.1540     0.3720    -6.4090 o          1 876      -0.871833
     43 O74         -1.6610    -2.1040    -5.8380 o          1 876      -0.871833
     44 O75         -3.1570    -0.2380    -4.9680 o          1 876      -0.871833
     45 H1          -1.5490    -0.5300    -0.5070 ha         1 876       0.030000
     46 H2          -2.5680    -0.5640    -2.7430 ha         1 876       0.103000
     47 H5           2.2990    -0.3970    -2.3390 ha         1 876       0.093000
     48 H71          1.7680     0.4850     0.1440 hc         1 876       0.016200
     49 H72A         0.3600    -0.2620     0.8740 hc         1 876       0.016200
     50 H8           2.8370    -1.5940    -0.2830 h1         1 876       0.081700
     51 H10          3.5870     0.0440     1.3630 hn         1 876       0.332500
     52 H11          1.7960    -3.4840    -0.5710 hn         1 876       0.320500
     53 H131        -0.8050    -5.1910     0.7630 hc         1 876       0.048700
     54 H132        -1.1630    -4.3850    -0.7570 hc         1 876       0.048700
     55 H133         0.4030    -5.1650    -0.5300 hc         1 876       0.048700
     56 H16          4.4140    -1.3650     3.6700 h1         1 876       0.064700
     57 H171         5.8290     0.3020     2.8180 hc         1 876       0.035200
     58 H172         5.3520     0.7640     4.4340 hc         1 876       0.035200
     59 H181         4.3430     1.9680     1.8070 hc         1 876       0.041700
     60 H182         5.4080     2.7030     2.9630 hc         1 876       0.041700
     61 H191         3.1740     3.6290     3.1550 hc         1 876       0.031700
     62 H192         3.5820     2.8080     4.6460 hc         1 876       0.031700
     63 H201         1.9050     1.5180     2.4410 h1         1 876       0.073700
     64 H202         1.2320     2.5090     3.6940 h1         1 876       0.073700
     65 H231         0.9560     1.7030     5.9690 h1         1 876       0.035200
     66 H232         0.9150    -0.0500     6.0190 h1         1 876       0.035200
     67 H27         -1.2340     2.5150     5.7250 ha         1 876       0.106000
     68 H28         -3.3820     2.5690     4.5590 ha         1 876       0.118500
     69 H30         -2.1700    -0.8100     2.2110 ha         1 876       0.118500
     70 H31         -0.0420    -0.8590     3.3700 ha         1 876       0.106000
     71 H59         -3.3620     0.4550     0.6520 ha         1 876       0.118000
     72 H60         -5.4920     0.5100    -0.5670 ha         1 876       0.101500
     73 H61         -7.5970     1.0400     0.6250 ha         1 876       0.082000
     74 H62         -7.5410     1.5100     3.0570 ha         1 876       0.101500
     75 H63         -5.4180     1.4250     4.2850 ha         1 876       0.118000
@<TRIPOS>BOND
     1     1     2 ar  
     2     1     6 ar  
     3     1    45 1   
     4     2     3 ar  
     5     2    46 1   
     6     3     4 ar  
     7     3    26 1   
     8     4     5 ar  
     9     4    38 1   
    10     5     6 ar  
    11     5    47 1   
    12     6     7 1   
    13     7     8 1   
    14     7    48 1   
    15     7    49 1   
    16     8     9 1   
    17     8    11 1   
    18     8    50 1   
    19     9    10 1   
    20     9    15 2   
    21    10    16 1   
    22    10    51 1   
    23    11    12 1   
    24    11    52 1   
    25    12    13 1   
    26    12    14 2   
    27    13    53 1   
    28    13    54 1   
    29    13    55 1   
    30    16    17 1   
    31    16    22 1   
    32    16    56 1   
    33    17    18 1   
    34    17    57 1   
    35    17    58 1   
    36    18    19 1   
    37    18    59 1   
    38    18    60 1   
    39    19    20 1   
    40    19    61 1   
    41    19    62 1   
    42    20    21 1   
    43    20    63 1   
    44    20    64 1   
    45    21    22 1   
    46    21    23 1   
    47    22    25 2   
    48    23    24 1   
    49    23    65 1   
    50    23    66 1   
    51    24    27 ar  
    52    24    31 ar  
    53    26    42 1   
    54    26    43 1   
    55    26    44 1   
    56    27    28 ar  
    57    27    67 1   
    58    28    29 ar  
    59    28    68 1   
    60    29    30 ar  
    61    29    32 1   
    62    30    31 ar  
    63    30    69 1   
    64    31    70 1   
    65    32    33 ar  
    66    32    37 ar  
    67    33    34 ar  
    68    33    71 1   
    69    34    35 ar  
    70    34    72 1   
    71    35    36 ar  
    72    35    73 1   
    73    36    37 ar  
    74    36    74 1   
    75    37    75 1   
    76    38    39 1   
    77    38    40 1   
    78    38    41 1   
@<TRIPOS>SUBSTRUCTURE
     1 876         1 TEMP              0 ****  ****    0 ROOT
