@<TRIPOS>MOLECULE
877
   46    47     1     0     0
SMALL
abcg2


@<TRIPOS>ATOM
      1 C1          -3.4630     0.8540     1.0480 ca         1 877      -0.135000
      2 C2          -2.1690     1.3070     0.8220 ca         1 877       0.123100
      3 C3          -1.7420     1.5630    -0.4830 ca         1 877      -0.058300
      4 C4          -2.6180     1.3610    -1.5380 ca         1 877      -0.148000
      5 C5          -3.9210     0.9080    -1.3360 ca         1 877       0.132100
      6 C6          -4.3200     0.6600    -0.0260 ca         1 877      -0.017900
      7 C9          -0.3490     2.0480    -0.7280 c3         1 877      -0.108100
      8 C10          0.6930     0.9830    -0.4200 c          1 877       0.620100
      9 N13          1.9410     1.5220    -0.2310 ns         1 877      -0.330900
     10 C14          3.1610     0.8920    -0.0600 ca         1 877       0.594900
     11 O15          0.4340    -0.1960    -0.3920 o          1 877      -0.512100
     12 N16          3.1730    -0.4280     0.1160 nb         1 877      -0.811000
     13 C17          4.3390    -1.0060     0.2660 ca         1 877       0.703300
     14 C18          5.5660    -0.3220     0.2590 ca         1 877      -0.250000
     15 C19          5.5480     1.0810     0.0850 ca         1 877       0.470000
     16 C20          4.2950     1.6860    -0.0770 ca         1 877      -0.373000
     17 O22         -4.8140     0.6930    -2.3170 os         1 877      -0.323100
     18 C23         -4.4270     0.9540    -3.6520 c3         1 877       0.147900
     19 O27         -1.2620     1.5230     1.7950 os         1 877      -0.344100
     20 C28         -1.6220     1.2470     3.1330 c3         1 877       0.148900
     21 N33          6.6740     1.8010     0.0670 nv         1 877      -1.110000
     22 C34          6.7780    -1.0220     0.4330 cg         1 877       0.362000
     23 O36          4.4050    -2.3160     0.4400 os         1 877      -0.455300
     24 C37          3.1840    -3.0620     0.5470 c3         1 877       0.170600
     25 C38          3.5540    -4.5170     0.7000 c3         1 877      -0.099100
     26 BR          -6.0720     0.0450     0.2970 br         1 877      -0.077100
     27 N1           7.7890    -1.5640     0.5720 n1         1 877      -0.491000
     28 H1          -3.8160     0.6480     2.0490 ha         1 877       0.135000
     29 H4          -2.2610     1.5650    -2.5390 ha         1 877       0.120000
     30 H91         -0.1400     2.9580    -0.1580 hc         1 877       0.066700
     31 H92         -0.2310     2.3170    -1.7810 hc         1 877       0.066700
     32 HN13         1.9960     2.5260    -0.3080 hn         1 877       0.151000
     33 H20          4.2250     2.7570    -0.2190 ha         1 877       0.121000
     34 H231        -4.1580     2.0030    -3.8010 h1         1 877       0.042700
     35 H232        -3.5910     0.3250    -3.9650 h1         1 877       0.042700
     36 H233        -5.2900     0.7220    -4.2710 h1         1 877       0.042700
     37 H281        -2.4600     1.8650     3.4660 h1         1 877       0.043033
     38 H282        -1.8810     0.1950     3.2760 h1         1 877       0.043033
     39 H283        -0.7530     1.4810     3.7420 h1         1 877       0.043033
     40 H331         6.6390     2.8020    -0.0180 hn         1 877       0.498000
     41 H332         7.5790     1.3880     0.2050 hn         1 877       0.498000
     42 H371         2.5690    -2.9010    -0.3400 h1         1 877       0.058200
     43 H372         2.6170    -2.7070     1.4100 h1         1 877       0.058200
     44 H381         4.0910    -4.8900    -0.1720 hc         1 877       0.047367
     45 H382         4.1680    -4.6850     1.5850 hc         1 877       0.047367
     46 H383         2.6440    -5.1050     0.8080 hc         1 877       0.047367
@<TRIPOS>BOND
     1     1     2 ar  
     2     1     6 ar  
     3     1    28 1   
     4     2     3 ar  
     5     2    19 1   
     6     3     4 ar  
     7     3     7 1   
     8     4     5 ar  
     9     4    29 1   
    10     5     6 ar  
    11     5    17 1   
    12     6    26 1   
    13     7     8 1   
    14     7    30 1   
    15     7    31 1   
    16     8     9 1   
    17     8    11 2   
    18     9    10 1   
    19     9    32 1   
    20    10    12 ar  
    21    10    16 ar  
    22    12    13 ar  
    23    13    14 ar  
    24    13    23 1   
    25    14    15 ar  
    26    14    22 1   
    27    15    16 ar  
    28    15    21 1   
    29    16    33 1   
    30    17    18 1   
    31    18    34 1   
    32    18    35 1   
    33    18    36 1   
    34    19    20 1   
    35    20    37 1   
    36    20    38 1   
    37    20    39 1   
    38    21    40 1   
    39    21    41 1   
    40    22    27 3   
    41    23    24 1   
    42    24    25 1   
    43    24    42 1   
    44    24    43 1   
    45    25    44 1   
    46    25    45 1   
    47    25    46 1   
@<TRIPOS>SUBSTRUCTURE
     1 877         1 TEMP              0 ****  ****    0 ROOT
