@<TRIPOS>MOLECULE
877
   46    47     1     0     0
SMALL
No Charge or Current Charge


@<TRIPOS>ATOM
      1 C1          -2.7770     1.0480     1.2250 ca         1 877      -0.135000
      2 C2          -1.6330     1.6280     0.6350 ca         1 877       0.123100
      3 C3          -1.5280     1.6900    -0.7740 ca         1 877      -0.058300
      4 C4          -2.5640     1.1700    -1.5770 ca         1 877      -0.148000
      5 C5          -3.7080     0.5900    -0.9870 ca         1 877       0.132100
      6 C6          -3.8050     0.5340     0.4170 ca         1 877      -0.017900
      7 C9          -0.2960     2.3050    -1.4410 c3         1 877      -0.108100
      8 C10          0.8900     1.3350    -1.3830 c          1 877       0.620100
      9 N13          1.8500     1.6660    -0.4520 ns         1 877      -0.330900
     10 C14          3.0120     0.9950    -0.0710 ca         1 877       0.594900
     11 O15          0.9630     0.3670    -2.1300 o          1 877      -0.512100
     12 N16          2.9500    -0.3380    -0.0930 nb         1 877      -0.811000
     13 C17          4.0270    -1.0280     0.3230 ca         1 877       0.703300
     14 C18          5.1850    -0.4070     0.7960 ca         1 877      -0.250000
     15 C19          5.2100     0.9840     0.8400 ca         1 877       0.470000
     16 C20          4.1070     1.6970     0.4110 ca         1 877      -0.373000
     17 O22         -4.7440     0.0690    -1.7410 os         1 877      -0.323100
     18 C23         -4.7330     0.0790    -3.1800 c3         1 877       0.147900
     19 O27         -0.5990     2.1410     1.3970 os         1 877      -0.344100
     20 C28         -0.6010     2.0980     2.8350 c3         1 877       0.148900
     21 N33          6.2830     1.6900     1.2940 nv         1 877      -1.110000
     22 C34          6.2960    -1.1980     1.2220 cg         1 877       0.362000
     23 O36          3.9790    -2.4050     0.2860 os         1 877      -0.455300
     24 C37          2.8170    -3.1010    -0.1990 c3         1 877       0.170600
     25 C38          3.1100    -4.6070    -0.1040 c3         1 877      -0.099100
     26 Br          -5.3410    -0.2470     1.2600 br         1 877      -0.077100
     27 N1           7.2110    -1.8290     1.5770 n1         1 877      -0.491000
     28 H1          -2.8850     0.9860     2.3030 ha         1 877       0.135000
     29 H4          -2.4640     1.2220    -2.6570 ha         1 877       0.120000
     30 H91         -0.0400     3.2400    -0.9290 hc         1 877       0.066700
     31 H92         -0.5110     2.5250    -2.4930 hc         1 877       0.066700
     32 HN13         1.6830     2.5230     0.0570 hn         1 877       0.151000
     33 H20          4.0900     2.7820     0.4400 ha         1 877       0.121000
     34 H231        -4.6810     1.1070    -3.5620 h1         1 877       0.042700
     35 H232        -3.8760    -0.4870    -3.5670 h1         1 877       0.042700
     36 H233        -5.6490    -0.3820    -3.5690 h1         1 877       0.042700
     37 H281        -1.4560     2.6520     3.2420 h1         1 877       0.043033
     38 H282        -0.6470     1.0620     3.1940 h1         1 877       0.043033
     39 H283         0.3170     2.5530     3.2290 h1         1 877       0.043033
     40 H331         6.1680     2.6840     1.4830 hn         1 877       0.498000
     41 H332         7.0180     1.2100     1.8100 hn         1 877       0.498000
     42 H371         2.6060    -2.8340    -1.2430 h1         1 877       0.058200
     43 H372         1.9330    -2.8610     0.4080 h1         1 877       0.058200
     44 H381         3.9810    -4.8700    -0.7150 hc         1 877       0.047367
     45 H382         3.3090    -4.8960     0.9350 hc         1 877       0.047367
     46 H383         2.2500    -5.1840    -0.4630 hc         1 877       0.047367
@<TRIPOS>BOND
     1     1     2 ar  
     2     1     6 ar  
     3     1    28 1   
     4     2     3 ar  
     5     2    19 1   
     6     3     4 ar  
     7     3     7 1   
     8     4     5 ar  
     9     4    29 1   
    10     5     6 ar  
    11     5    17 1   
    12     6    26 1   
    13     7     8 1   
    14     7    30 1   
    15     7    31 1   
    16     8     9 1   
    17     8    11 2   
    18     9    10 1   
    19     9    32 1   
    20    10    12 ar  
    21    10    16 ar  
    22    12    13 ar  
    23    13    14 ar  
    24    13    23 1   
    25    14    15 ar  
    26    14    22 1   
    27    15    16 ar  
    28    15    21 1   
    29    16    33 1   
    30    17    18 1   
    31    18    34 1   
    32    18    35 1   
    33    18    36 1   
    34    19    20 1   
    35    20    37 1   
    36    20    38 1   
    37    20    39 1   
    38    21    40 1   
    39    21    41 1   
    40    22    27 3   
    41    23    24 1   
    42    24    25 1   
    43    24    42 1   
    44    24    43 1   
    45    25    44 1   
    46    25    45 1   
    47    25    46 1   
@<TRIPOS>SUBSTRUCTURE
     1 877         1 TEMP              0 ****  ****    0 ROOT
