@<TRIPOS>MOLECULE
878
   20    20     1     0     0
SMALL
abcg2


@<TRIPOS>ATOM
      1 C1           1.3340    -0.2090    -0.7570 ca         1 878      -0.081000
      2 C2           1.3250    -0.1880     0.6270 ca         1 878      -0.204000
      3 C3           0.1230    -0.1250     1.3450 ca         1 878       0.049000
      4 C4          -1.0960    -0.0790     0.6320 ca         1 878      -0.219600
      5 C5          -1.0630    -0.0990    -0.7590 ca         1 878      -0.039000
      6 C6           0.1340    -0.1640    -1.4470 ca         1 878       0.130000
      7 C10         -2.4750    -0.0070     1.2900 c          1 878       0.716600
      8 O11         -2.5150     0.0070     2.5430 o          1 878      -0.711500
      9 O12         -3.4560     0.0310     0.5320 o          1 878      -0.711500
     10 N13          0.0850    -0.1110     2.7330 ns         1 878      -0.139000
     11 C14          1.1050    -0.1350     3.6210 c          1 878       0.447100
     12 O15          2.2910    -0.1640     3.3370 o          1 878      -0.657100
     13 C16          0.6290    -0.1240     5.1080 c          1 878       0.661000
     14 O17         -0.5990    -0.0890     5.2930 o          1 878      -0.696000
     15 O18          1.5400    -0.1540     5.9440 o          1 878      -0.696000
     16 I19          0.1340    -0.1960    -3.5530 i          1 878      -0.450000
     17 H1           2.2820    -0.2610    -1.2750 ha         1 878       0.085000
     18 H2           2.2660    -0.2240     1.1510 ha         1 878       0.138000
     19 H5          -2.0050    -0.0620    -1.2880 ha         1 878       0.132000
     20 H13         -0.8750    -0.0730     3.1040 hn         1 878       0.246000
@<TRIPOS>BOND
     1     1     2 ar  
     2     1     6 ar  
     3     1    17 1   
     4     2     3 ar  
     5     2    18 1   
     6     3     4 ar  
     7     3    10 1   
     8     4     5 ar  
     9     4     7 1   
    10     5     6 ar  
    11     5    19 1   
    12     6    16 1   
    13     7     8 1   
    14     7     9 1   
    15    10    11 1   
    16    10    20 1   
    17    11    12 2   
    18    11    13 1   
    19    13    14 1   
    20    13    15 1   
@<TRIPOS>SUBSTRUCTURE
     1 878         1 TEMP              0 ****  ****    0 ROOT
