@<TRIPOS>MOLECULE
878
   20    20     1     0     0
SMALL
No Charge or Current Charge


@<TRIPOS>ATOM
      1 C1           1.3260    -0.3050    -0.8230 ca         1 878      -0.081000
      2 C2           1.3340    -0.2960     0.5820 ca         1 878      -0.204000
      3 C3           0.1310    -0.1720     1.3140 ca         1 878       0.049000
      4 C4          -1.1000    -0.0780     0.6090 ca         1 878      -0.219600
      5 C5          -1.0900    -0.0820    -0.8060 ca         1 878      -0.039000
      6 C6           0.1140    -0.1930    -1.5150 ca         1 878       0.130000
      7 C10         -2.4290     0.0420     1.3190 c          1 878       0.716600
      8 O11         -2.5970    -0.5820     2.3550 o          1 878      -0.711500
      9 O12         -3.2940     0.7350     0.8040 o          1 878      -0.711500
     10 N13          0.1250    -0.1550     2.7370 ns         1 878      -0.139000
     11 C14          1.1240     0.0740     3.6790 c          1 878       0.447100
     12 O15          2.2840     0.3940     3.3900 o          1 878      -0.657100
     13 C16          0.5940    -0.1010     5.2070 c          1 878       0.661000
     14 O17         -0.5770    -0.4300     5.3850 o          1 878      -0.696000
     15 O18          1.3770     0.1000     6.1340 o          1 878      -0.696000
     16 I19          0.1020    -0.2060    -3.6830 i          1 878      -0.450000
     17 H1           2.2580    -0.4000    -1.3730 ha         1 878       0.085000
     18 H2           2.2890    -0.4000     1.0870 ha         1 878       0.138000
     19 H5          -2.0220    -0.0060    -1.3610 ha         1 878       0.132000
     20 H13         -0.7840    -0.3640     3.1420 hn         1 878       0.246000
@<TRIPOS>BOND
     1     1     2 ar  
     2     1     6 ar  
     3     1    17 1   
     4     2     3 ar  
     5     2    18 1   
     6     3     4 ar  
     7     3    10 1   
     8     4     5 ar  
     9     4     7 1   
    10     5     6 ar  
    11     5    19 1   
    12     6    16 1   
    13     7     8 1   
    14     7     9 1   
    15    10    11 1   
    16    10    20 1   
    17    11    12 2   
    18    11    13 1   
    19    13    14 1   
    20    13    15 1   
@<TRIPOS>SUBSTRUCTURE
     1 878         1 TEMP              0 ****  ****    0 ROOT
