@<TRIPOS>MOLECULE
879
   53    57     1     0     0
SMALL
abcg2


@<TRIPOS>ATOM
      1 C1          -5.7240     0.8080    -0.3570 ca         1 879      -0.111000
      2 N1           6.7960    -3.0590     0.3450 nb         1 879      -0.150000
      3 O1           5.3720     0.2740     0.2200 os         1 879      -0.236200
      4 CL1         -3.0540    -2.1400     1.7380 cl         1 879      -0.204000
      5 C2          -6.1370     0.2030     0.8210 ca         1 879      -0.099000
      6 N2           8.2410    -1.5110     1.3790 nb         1 879      -0.150000
      7 C3          -3.4710     3.5290     1.4200 ca         1 879      -0.034000
      8 N3          -1.6620     2.5380    -0.4190 nb         1 879      -0.732000
      9 C4          -4.4700     0.5260    -0.8730 ca         1 879      -0.078000
     10 N4          -1.1180    -0.2330    -0.1910 na         1 879       0.062000
     11 C5           2.2160     0.2260    -1.5930 ca         1 879      -0.090000
     12 N5          -2.1350     4.2300    -1.8990 nv         1 879      -1.053900
     13 C6           1.8620    -0.6770     0.6000 ca         1 879      -0.090000
     14 C7           3.5630     0.3960    -1.3120 ca         1 879      -0.120500
     15 C8           3.2010    -0.4920     0.9000 ca         1 879      -0.120500
     16 C9          -5.3050    -0.6960     1.4700 ca         1 879      -0.111000
     17 C10         -0.5510    -1.1530    -2.1320 cc         1 879      -0.157000
     18 C11         -1.9570    -1.1950    -2.0110 cc         1 879      -0.153000
     19 C12         -2.7680     2.3570     1.6900 ca         1 879      -0.201000
     20 C13         -3.2710     4.1870     0.2280 ca         1 879      -0.225000
     21 C14          5.9280    -2.0900     0.0860 ca         1 879       0.063900
     22 C15          7.3810    -0.5390     1.1290 ca         1 879       0.063900
     23 C16          7.9080    -2.7300     0.9780 ca         1 879       0.086900
     24 C17          1.3450    -0.3180    -0.6480 ca         1 879      -0.001000
     25 C18         -3.6040    -0.3610    -0.2340 ca         1 879      -0.008000
     26 C19          4.0450     0.0430    -0.0630 ca         1 879       0.085100
     27 C20          6.1810    -0.7790     0.4690 ca         1 879       0.028100
     28 C21         -4.0570    -0.9740     0.9340 ca         1 879       0.128000
     29 C22         -0.0560    -0.5460    -1.0000 cd         1 879      -0.119000
     30 C23         -2.2790    -0.6190    -0.8070 cd         1 879      -0.113000
     31 C24         -1.8800     1.9090     0.7310 ca         1 879       0.368300
     32 C25         -2.3430     3.6480    -0.6820 ca         1 879       0.595900
     33 H1          -6.3720     1.5080    -0.8680 ha         1 879       0.119000
     34 H2          -7.1120     0.4220     1.2370 ha         1 879       0.117000
     35 H3          -4.1810     3.9190     2.1380 ha         1 879       0.117000
     36 H4          -4.1340     1.0130    -1.7780 ha         1 879       0.132000
     37 H5           1.8360     0.5240    -2.5610 ha         1 879       0.125000
     38 HN5         -1.2910     3.9630    -2.3780 hn         1 879       0.471000
     39 HN5A        -2.3740     5.2030    -1.9970 hn         1 879       0.471000
     40 H6           1.2190    -1.1270     1.3450 ha         1 879       0.125000
     41 H7           4.2290     0.8170    -2.0540 ha         1 879       0.129500
     42 H8           3.5820    -0.7710     1.8750 ha         1 879       0.129500
     43 H9          -5.6270    -1.1850     2.3790 ha         1 879       0.128000
     44 H10          0.0440    -1.5610    -2.9340 ha         1 879       0.132000
     45 H11         -2.6600    -1.6240    -2.7080 ha         1 879       0.135000
     46 H12         -2.9250     1.8040     2.6060 ha         1 879       0.127000
     47 H13         -3.8100     5.0950    -0.0100 ha         1 879       0.122000
     48 H14          5.0200    -2.3680    -0.4360 h4         1 879       0.038100
     49 H15          7.6410     0.4650     1.4500 h4         1 879       0.038100
     50 H16          8.6110    -3.5270     1.1880 h5         1 879       0.054100
     51 H26         -1.4510     0.1280     1.8450 h1         1 879       0.074700
     52 H26A        -0.0470     0.9110     1.1580 h1         1 879       0.074700
     53 C26         -1.0850     0.6480     0.9590 c3         1 879       0.013300
@<TRIPOS>BOND
     1     1     5 ar  
     2     1     9 ar  
     3     1    33 1   
     4     2    21 ar  
     5     2    23 ar  
     6     3    26 1   
     7     3    27 1   
     8     4    28 1   
     9     5    16 ar  
    10     5    34 1   
    11     6    22 ar  
    12     6    23 ar  
    13     7    19 ar  
    14     7    20 ar  
    15     7    35 1   
    16     8    31 ar  
    17     8    32 ar  
    18     9    25 ar  
    19     9    36 1   
    20    10    29 1   
    21    10    30 1   
    22    10    53 1   
    23    11    14 ar  
    24    11    24 ar  
    25    11    37 1   
    26    12    32 1   
    27    12    38 1   
    28    12    39 1   
    29    13    15 ar  
    30    13    24 ar  
    31    13    40 1   
    32    14    26 ar  
    33    14    41 1   
    34    15    26 ar  
    35    15    42 1   
    36    16    28 ar  
    37    16    43 1   
    38    17    18 1   
    39    17    29 2   
    40    17    44 1   
    41    18    30 2   
    42    18    45 1   
    43    19    31 ar  
    44    19    46 1   
    45    20    32 ar  
    46    20    47 1   
    47    21    27 ar  
    48    21    48 1   
    49    22    27 ar  
    50    22    49 1   
    51    23    50 1   
    52    24    29 1   
    53    25    28 ar  
    54    25    30 1   
    55    31    53 1   
    56    51    53 1   
    57    52    53 1   
@<TRIPOS>SUBSTRUCTURE
     1 879         1 TEMP              0 ****  ****    0 ROOT
