@<TRIPOS>MOLECULE
879
   53    57     1     0     0
SMALL
No Charge or Current Charge


@<TRIPOS>ATOM
      1 C1          -5.8930     0.5680    -0.7180 ca         1 879      -0.111000
      2 N1           6.6140    -3.1340     1.5700 nb         1 879      -0.150000
      3 O1           5.6760    -0.2740    -0.5390 os         1 879      -0.236200
      4 Cl1         -2.8200    -1.4960     1.9580 cl         1 879      -0.204000
      5 C2          -6.2000     0.2450     0.6120 ca         1 879      -0.099000
      6 N2           8.2500    -1.3740     1.8120 nb         1 879      -0.150000
      7 C3          -3.5680     3.1560     2.0510 ca         1 879      -0.034000
      8 N3          -1.8920     2.8380    -0.2020 nb         1 879      -0.732000
      9 C4          -4.6080     0.3150    -1.2270 ca         1 879      -0.078000
     10 N4          -1.0010    -0.0950    -0.4140 na         1 879       0.062000
     11 C5           2.3820    -0.3600    -2.1860 ca         1 879      -0.090000
     12 N5          -2.7440     4.5980    -1.2010 nv         1 879      -1.053900
     13 C6           2.0580    -0.4440     0.2170 ca         1 879      -0.090000
     14 C7           3.7750    -0.3090    -1.9960 ca         1 879      -0.120500
     15 C8           3.4500    -0.3960     0.4080 ca         1 879      -0.120500
     16 C9          -5.2250    -0.3510     1.4250 ca         1 879      -0.111000
     17 C10         -0.5950    -0.7590    -2.4830 cc         1 879      -0.157000
     18 C11         -1.9810    -0.7190    -2.2920 cc         1 879      -0.153000
     19 C12         -2.6360     2.1090     1.9850 ca         1 879      -0.201000
     20 C13         -3.6410     4.0320     0.9590 ca         1 879      -0.225000
     21 C14          5.9210    -2.3670     0.7020 ca         1 879       0.063900
     22 C15          7.5540    -0.6120     0.9420 ca         1 879       0.063900
     23 C16          7.7420    -2.5970     2.0840 ca         1 879       0.086900
     24 C17          1.5010    -0.4120    -1.0820 ca         1 879      -0.001000
     25 C18         -3.6010    -0.2410    -0.4070 ca         1 879      -0.008000
     26 C19          4.3110    -0.3340    -0.7020 ca         1 879       0.085100
     27 C20          6.3580    -1.0690     0.3590 ca         1 879       0.028100
     28 C21         -3.9360    -0.6020     0.9240 ca         1 879       0.128000
     29 C22          0.0350    -0.4790    -1.3000 cd         1 879      -0.119000
     30 C23         -2.2520    -0.4530    -0.9770 cd         1 879      -0.113000
     31 C24         -1.8310     1.9670     0.8350 ca         1 879       0.368300
     32 C25         -2.7810     3.8160    -0.1200 ca         1 879       0.595900
     33 H1          -6.6510     1.0180    -1.3570 ha         1 879       0.119000
     34 H2          -7.1970     0.4380     1.0050 ha         1 879       0.117000
     35 H3          -4.2110     3.2840     2.9200 ha         1 879       0.117000
     36 H4          -4.3850     0.5910    -2.2540 ha         1 879       0.132000
     37 H5           1.9960    -0.3360    -3.2010 ha         1 879       0.125000
     38 HN5         -1.9290     4.4690    -1.7880 hn         1 879       0.471000
     39 HN5A        -3.0940     5.5460    -1.1110 hn         1 879       0.471000
     40 H6           1.4210    -0.5400     1.0910 ha         1 879       0.125000
     41 H7           4.4390    -0.2550    -2.8550 ha         1 879       0.129500
     42 H8           3.8560    -0.4120     1.4160 ha         1 879       0.129500
     43 H9          -5.4730    -0.6370     2.4440 ha         1 879       0.128000
     44 H10         -0.1260    -1.0160    -3.4280 ha         1 879       0.132000
     45 H11         -2.7100    -0.9300    -3.0690 ha         1 879       0.135000
     46 H12         -2.5440     1.4090     2.8100 ha         1 879       0.127000
     47 H13         -4.3420     4.8600     0.9540 ha         1 879       0.122000
     48 H14          5.0180    -2.8020     0.2780 h4         1 879       0.038100
     49 H15          7.9580     0.3740     0.7150 h4         1 879       0.038100
     50 H16          8.3020    -3.2130     2.7850 h5         1 879       0.054100
     51 H26         -0.7940     0.2600     1.6620 h1         1 879       0.074700
     52 H26A         0.1660     1.3130     0.6280 h1         1 879       0.074700
     53 C26         -0.8130     0.8340     0.7310 c3         1 879       0.013300
@<TRIPOS>BOND
     1     1     5 ar  
     2     1     9 ar  
     3     1    33 1   
     4     2    21 ar  
     5     2    23 ar  
     6     3    26 1   
     7     3    27 1   
     8     4    28 1   
     9     5    16 ar  
    10     5    34 1   
    11     6    22 ar  
    12     6    23 ar  
    13     7    19 ar  
    14     7    20 ar  
    15     7    35 1   
    16     8    31 ar  
    17     8    32 ar  
    18     9    25 ar  
    19     9    36 1   
    20    10    29 1   
    21    10    30 1   
    22    10    53 1   
    23    11    14 ar  
    24    11    24 ar  
    25    11    37 1   
    26    12    32 1   
    27    12    38 1   
    28    12    39 1   
    29    13    15 ar  
    30    13    24 ar  
    31    13    40 1   
    32    14    26 ar  
    33    14    41 1   
    34    15    26 ar  
    35    15    42 1   
    36    16    28 ar  
    37    16    43 1   
    38    17    18 1   
    39    17    29 2   
    40    17    44 1   
    41    18    30 2   
    42    18    45 1   
    43    19    31 ar  
    44    19    46 1   
    45    20    32 ar  
    46    20    47 1   
    47    21    27 ar  
    48    21    48 1   
    49    22    27 ar  
    50    22    49 1   
    51    23    50 1   
    52    24    29 1   
    53    25    28 ar  
    54    25    30 1   
    55    31    53 1   
    56    51    53 1   
    57    52    53 1   
@<TRIPOS>SUBSTRUCTURE
     1 879         1 TEMP              0 ****  ****    0 ROOT
