@<TRIPOS>MOLECULE
87B
   40    43     1     0     0
SMALL
bcc


@<TRIPOS>ATOM
      1 C1          31.2730    41.9880    26.4030 ca         1 87B       0.067600
      2 C10         30.9400    43.1160    24.3340 ca         1 87B       0.075400
      3 C11         31.6570    42.1900    25.0870 ca         1 87B      -0.050000
      4 C12         32.1330    38.9610    25.5200 ca         1 87B      -0.267500
      5 C13         33.5110    38.8450    25.3800 ca         1 87B      -0.027000
      6 C14         34.0310    38.4980    24.1440 ca         1 87B      -0.149500
      7 C15         33.1810    38.2700    23.0680 ca         1 87B      -0.073000
      8 C16         31.8070    38.3840    23.2250 ca         1 87B      -0.149500
      9 C17         31.2720    38.7320    24.4580 ca         1 87B      -0.027000
     10 C2          30.2070    42.7040    26.9720 ca         1 87B      -0.120000
     11 C3          29.5090    43.6510    26.2470 ca         1 87B      -0.115000
     12 C4          29.8870    43.8360    24.9240 ca         1 87B      -0.079200
     13 C5          30.1830    44.4100    22.8170 cc         1 87B       0.434800
     14 C6          29.9790    45.1600    21.5530 cy         1 87B      -0.113000
     15 C7          30.2770    44.3430    20.2730 cy         1 87B      -0.072400
     16 C8          31.6600    45.0130    20.1780 cy         1 87B      -0.087400
     17 C9          31.1810    46.0760    21.1850 cy         1 87B      -0.072400
     18 N1          31.9860    41.0320    27.1840 nu         1 87B      -0.686500
     19 N2          29.4320    44.6520    23.9250 na         1 87B      -0.260300
     20 N3          31.0960    43.4960    23.0240 nd         1 87B      -0.573100
     21 O1          32.1980    38.7490    28.1540 o          1 87B      -0.612300
     22 O2          30.0340    39.3370    27.0330 o          1 87B      -0.612300
     23 S1          31.4840    39.4420    27.0930 sy         1 87B       1.271200
     24 H11         32.4930    41.6500    24.6620 ha         1 87B       0.162000
     25 H13         34.1750    39.0300    26.2150 ha         1 87B       0.154500
     26 H14         35.1020    38.4070    24.0200 ha         1 87B       0.137500
     27 H15         33.5920    38.0020    22.1040 ha         1 87B       0.134000
     28 H16         31.1460    38.2050    22.3870 ha         1 87B       0.137500
     29 H17         30.2030    38.8280    24.5790 ha         1 87B       0.154500
     30 H2          29.9370    42.5130    28.0030 ha         1 87B       0.137000
     31 H3          28.6980    44.2110    26.6950 ha         1 87B       0.140000
     32 H6          29.0090    45.6590    21.5790 hc         1 87B       0.059700
     33 H72         29.6150    44.6390    19.4600 hc         1 87B       0.056200
     34 H71         30.2500    43.2580    20.3680 hc         1 87B       0.056200
     35 H81         32.4490    44.3840    20.5880 hc         1 87B       0.058700
     36 H82         31.9730    45.3680    19.1970 hc         1 87B       0.058700
     37 H91         31.8590    46.3460    21.9940 hc         1 87B       0.056200
     38 H92         30.8400    46.9890    20.6980 hc         1 87B       0.056200
     39 HN1         32.1240    41.2960    28.1560 hn         1 87B       0.432800
     40 H1          28.6740    45.3130    23.9880 hn         1 87B       0.306700
@<TRIPOS>BOND
     1     1     3 ar  
     2     1    10 ar  
     3     1    18 1   
     4     2     3 ar  
     5     2    12 ar  
     6     2    20 1   
     7     3    24 1   
     8     4     5 ar  
     9     4     9 ar  
    10     4    23 1   
    11     5     6 ar  
    12     5    25 1   
    13     6     7 ar  
    14     6    26 1   
    15     7     8 ar  
    16     7    27 1   
    17     8     9 ar  
    18     8    28 1   
    19     9    29 1   
    20    10    11 ar  
    21    10    30 1   
    22    11    12 ar  
    23    11    31 1   
    24    12    19 1   
    25    13    14 1   
    26    13    19 1   
    27    13    20 2   
    28    14    15 1   
    29    14    17 1   
    30    14    32 1   
    31    15    16 1   
    32    15    33 1   
    33    15    34 1   
    34    16    17 1   
    35    16    35 1   
    36    16    36 1   
    37    17    37 1   
    38    17    38 1   
    39    18    23 1   
    40    18    39 1   
    41    19    40 1   
    42    21    23 2   
    43    22    23 2   
@<TRIPOS>SUBSTRUCTURE
     1 87B         1 TEMP              0 ****  ****    0 ROOT
