@<TRIPOS>MOLECULE
87B
   40    43     1     0     0
SMALL
No Charge or Current Charge


@<TRIPOS>ATOM
      1 C1          30.7750    41.7100    26.3820 ca         1 87B       0.206000
      2 C10         30.2270    42.8730    24.3260 ca         1 87B       0.075400
      3 C11         30.2270    41.6880    25.0750 ca         1 87B      -0.032000
      4 C12         31.9790    38.7100    25.5020 ca         1 87B      -0.267500
      5 C13         33.3480    38.7640    25.8330 ca         1 87B      -0.009000
      6 C14         34.3210    38.5970    24.8320 ca         1 87B      -0.131500
      7 C15         33.9330    38.3750    23.5000 ca         1 87B      -0.055000
      8 C16         32.5680    38.3200    23.1680 ca         1 87B      -0.131500
      9 C17         31.5900    38.4870    24.1640 ca         1 87B      -0.009000
     10 C2          31.2960    42.9230    26.9000 ca         1 87B      -0.102000
     11 C3          31.2840    44.1030    26.1270 ca         1 87B      -0.097000
     12 C4          30.7390    44.0230    24.8430 ca         1 87B      -0.079200
     13 C5          29.9880    44.3770    22.7860 cc         1 87B       0.434800
     14 C6          29.6250    45.0410    21.4860 cy         1 87B      -0.113000
     15 C7          30.1830    44.4800    20.1280 cy         1 87B      -0.072400
     16 C8          31.3630    45.4870    20.3250 cy         1 87B      -0.087400
     17 C9          30.3050    46.3880    21.0420 cy         1 87B      -0.072400
     18 N1          30.8220    40.5720    27.1930 nu         1 87B      -0.880100
     19 N2          30.5940    44.9790    23.8870 na         1 87B      -0.310600
     20 N3          29.7460    43.0730    23.0350 nd         1 87B      -0.573100
     21 O1          31.1890    38.2970    28.0230 o          1 87B      -0.541500
     22 O2          29.3900    38.7570    26.2510 o          1 87B      -0.541500
     23 S1          30.7420    38.9410    26.7870 sy         1 87B       1.129600
     24 H11         29.8060    40.7860    24.6490 ha         1 87B       0.144000
     25 H13         33.6610    38.9390    26.8620 ha         1 87B       0.136500
     26 H14         35.3770    38.6400    25.0900 ha         1 87B       0.119500
     27 H15         34.6870    38.2460    22.7270 ha         1 87B       0.116000
     28 H16         32.2680    38.1490    22.1370 ha         1 87B       0.119500
     29 H17         30.5370    38.4400    23.8900 ha         1 87B       0.136500
     30 H2          31.7140    42.9490    27.9020 ha         1 87B       0.119000
     31 H3          31.6850    45.0360    26.5170 ha         1 87B       0.122000
     32 H6          28.5320    45.0970    21.5210 hc         1 87B       0.059700
     33 H72         29.5500    44.6840    19.2550 hc         1 87B       0.056200
     34 H71         30.4550    43.4190    20.1190 hc         1 87B       0.056200
     35 H81         32.1720    45.1250    20.9710 hc         1 87B       0.058700
     36 H82         31.8020    45.8970    19.4100 hc         1 87B       0.058700
     37 H91         30.6870    47.0310    21.8420 hc         1 87B       0.056200
     38 H92         29.6990    47.0030    20.3660 hc         1 87B       0.056200
     39 HN1         31.3220    40.6270    28.0700 hn         1 87B       0.488000
     40 H1          30.8680    45.9500    23.9500 hn         1 87B       0.357000
@<TRIPOS>BOND
     1     1     3 ar  
     2     1    10 ar  
     3     1    18 1   
     4     2     3 ar  
     5     2    12 ar  
     6     2    20 1   
     7     3    24 1   
     8     4     5 ar  
     9     4     9 ar  
    10     4    23 1   
    11     5     6 ar  
    12     5    25 1   
    13     6     7 ar  
    14     6    26 1   
    15     7     8 ar  
    16     7    27 1   
    17     8     9 ar  
    18     8    28 1   
    19     9    29 1   
    20    10    11 ar  
    21    10    30 1   
    22    11    12 ar  
    23    11    31 1   
    24    12    19 1   
    25    13    14 1   
    26    13    19 1   
    27    13    20 2   
    28    14    15 1   
    29    14    17 1   
    30    14    32 1   
    31    15    16 1   
    32    15    33 1   
    33    15    34 1   
    34    16    17 1   
    35    16    35 1   
    36    16    36 1   
    37    17    37 1   
    38    17    38 1   
    39    18    23 1   
    40    18    39 1   
    41    19    40 1   
    42    21    23 2   
    43    22    23 2   
@<TRIPOS>SUBSTRUCTURE
     1 87B         1 TEMP              0 ****  ****    0 ROOT
