@<TRIPOS>MOLECULE
87C
   45    47     1     0     0
SMALL
No Charge or Current Charge


@<TRIPOS>ATOM
      1 N10         -3.4710     1.8780     0.0180 nc         1 87C      -0.638300
      2 C11         -4.0480     0.6290     0.0820 cc         1 87C       0.179400
      3 C12         -3.2830    -0.5170    -0.0470 cd         1 87C      -0.236400
      4 C13         -3.8880    -1.9180     0.0130 c6         1 87C      -0.014200
      5 C14         -5.3250    -1.9260     0.5820 c6         1 87C      -0.076400
      6 C15         -6.1580    -0.7880    -0.0380 c6         1 87C      -0.075400
      7 C16         -5.5440     0.5840     0.3230 c6         1 87C      -0.033200
      8 C17         -1.8280    -0.4420    -0.2820 c          1 87C       0.562200
      9 C09         -2.1560     1.9440    -0.1860 cd         1 87C       0.502800
     10 N08         -1.3230     0.8560    -0.3480 n          1 87C      -0.303300
     11 C07          0.1400     1.0660    -0.5630 c3         1 87C      -0.024000
     12 C06          0.9840     1.0880     0.7280 c          1 87C       0.570100
     13 O19          0.5060     0.8300     1.8270 o          1 87C      -0.489100
     14 C05          2.4530     1.4870     0.5800 c3         1 87C      -0.166400
     15 C04          3.3850     0.2500     0.5880 c6         1 87C       0.184500
     16 C20          4.9010     0.6270     0.7370 c6         1 87C       0.132300
     17 O22          5.3330     1.5030    -0.3200 oh         1 87C      -0.667000
     18 C21          5.7540    -0.6690     0.7250 c6         1 87C      -0.110400
     19 C01          5.4360    -1.5460    -0.5190 c6         1 87C      -0.111400
     20 C02          3.9140    -1.8030    -0.6600 c6         1 87C       0.152800
     21 N03          3.1610    -0.5270    -0.6560 n7         1 87C      -0.835400
     22 H1          -3.9020    -2.3510    -0.9980 hc         1 87C       0.059700
     23 H2          -3.2660    -2.5910     0.6200 hc         1 87C       0.059700
     24 H3          -5.8000    -2.8970     0.3850 hc         1 87C       0.044700
     25 H4          -5.2930    -1.8080     1.6740 hc         1 87C       0.044700
     26 H5          -6.1950    -0.9060    -1.1300 hc         1 87C       0.044200
     27 H6          -7.1960    -0.8390     0.3200 hc         1 87C       0.044200
     28 H7          -5.7500     0.8030     1.3790 hc         1 87C       0.064200
     29 H8          -6.0550     1.3690    -0.2520 hc         1 87C       0.064200
     30 H9          -1.6850     2.9190    -0.2340 h5         1 87C       0.042800
     31 H10          0.5440     0.2820    -1.2140 h1         1 87C       0.082700
     32 H11          0.2990     2.0220    -1.0780 h1         1 87C       0.082700
     33 H12          2.5930     2.0300    -0.3620 hc         1 87C       0.067200
     34 H13          2.7170     2.1360     1.4240 hc         1 87C       0.067200
     35 H14          3.1060    -0.3690     1.4570 h1         1 87C       0.078700
     36 H15          5.0430     1.1260     1.7080 h1         1 87C       0.033700
     37 H16          6.2960     1.6440    -0.1930 ho         1 87C       0.444000
     38 H17          6.8250    -0.4260     0.7550 hc         1 87C       0.046200
     39 H18          5.5450    -1.2460     1.6360 hc         1 87C       0.046200
     40 H19          5.8090    -1.0530    -1.4270 hc         1 87C       0.047200
     41 H20          5.9680    -2.5040    -0.4470 hc         1 87C       0.047200
     42 H21          3.7190    -2.3460    -1.5970 h1         1 87C       0.056200
     43 H22          3.5670    -2.4400     0.1680 h1         1 87C       0.056200
     44 H23          3.5340     0.0470    -1.4220 hn         1 87C       0.416000
     45 O18         -1.1160    -1.4300    -0.4130 o          1 87C      -0.541000
@<TRIPOS>BOND
     1     1     2 1   
     2     1     9 2   
     3     2     3 2   
     4     2     7 1   
     5     3     4 1   
     6     3     8 1   
     7     4     5 1   
     8     4    22 1   
     9     4    23 1   
    10     5     6 1   
    11     5    24 1   
    12     5    25 1   
    13     6     7 1   
    14     6    26 1   
    15     6    27 1   
    16     7    28 1   
    17     7    29 1   
    18     8    10 1   
    19     8    45 2   
    20     9    10 1   
    21     9    30 1   
    22    10    11 1   
    23    11    12 1   
    24    11    31 1   
    25    11    32 1   
    26    12    13 2   
    27    12    14 1   
    28    14    15 1   
    29    14    33 1   
    30    14    34 1   
    31    15    16 1   
    32    15    21 1   
    33    15    35 1   
    34    16    17 1   
    35    16    18 1   
    36    16    36 1   
    37    17    37 1   
    38    18    19 1   
    39    18    38 1   
    40    18    39 1   
    41    19    20 1   
    42    19    40 1   
    43    19    41 1   
    44    20    21 1   
    45    20    42 1   
    46    20    43 1   
    47    21    44 1   
@<TRIPOS>SUBSTRUCTURE
     1 87C         1 TEMP              0 ****  ****    0 ROOT
