@<TRIPOS>MOLECULE
87C
   45    47     1     0     0
SMALL
bcc


@<TRIPOS>ATOM
      1 N10         -3.4020     1.8110     0.7420 nc         1 87C      -0.638300
      2 C11         -3.9390     0.5980     0.4080 cc         1 87C       0.179400
      3 C12         -3.2530    -0.3410    -0.3020 cd         1 87C      -0.236400
      4 C13         -3.8210    -1.6890    -0.6400 c6         1 87C      -0.014200
      5 C14         -5.0640    -2.0110     0.1790 c6         1 87C      -0.076400
      6 C15         -6.0100    -0.8190     0.2110 c6         1 87C      -0.075400
      7 C16         -5.3390     0.3660     0.8900 c6         1 87C      -0.033200
      8 C17         -1.9150    -0.0480    -0.7520 c          1 87C       0.704700
      9 C09         -2.2030     2.0560     0.3480 cd         1 87C       0.502800
     10 N08         -1.4480     1.2140    -0.3880 n          1 87C      -0.370300
     11 C07         -0.0880     1.5590    -0.7220 c3         1 87C      -0.024000
     12 C06          0.9090     0.9050     0.2180 c          1 87C       0.570100
     13 O19          0.5390     0.2330     1.1470 o          1 87C      -0.489100
     14 C05          2.3500     1.2310    -0.0670 c3         1 87C      -0.166400
     15 C04          3.3240     0.1760     0.4360 c6         1 87C       0.184500
     16 C20          4.7690     0.6820     0.4500 c6         1 87C       0.109100
     17 O22          5.0930     1.0930    -0.8640 oh         1 87C      -0.604800
     18 C21          5.6930    -0.4290     0.9460 c6         1 87C      -0.110400
     19 C01          5.5030    -1.7160     0.1480 c6         1 87C      -0.111400
     20 C02          4.0280    -2.1090     0.1280 c6         1 87C       0.152800
     21 N03          3.1470    -1.0460    -0.3310 n7         1 87C      -0.780200
     22 H1          -4.0580    -1.7240    -1.7090 hc         1 87C       0.059700
     23 H2          -3.0580    -2.4550    -0.4840 hc         1 87C       0.059700
     24 H3          -5.5600    -2.8890    -0.2370 hc         1 87C       0.044700
     25 H4          -4.7720    -2.2680     1.2020 hc         1 87C       0.044700
     26 H5          -6.2910    -0.5470    -0.8110 hc         1 87C       0.044200
     27 H6          -6.9340    -1.0700     0.7340 hc         1 87C       0.044200
     28 H7          -5.3010     0.2070     1.9730 hc         1 87C       0.064200
     29 H8          -5.9150     1.2830     0.7440 hc         1 87C       0.064200
     30 H9          -1.7420     3.0060     0.5970 h5         1 87C       0.042800
     31 H10          0.1330     1.2740    -1.7510 h1         1 87C       0.082700
     32 H11          0.0350     2.6440    -0.6680 h1         1 87C       0.082700
     33 H12          2.4830     1.4110    -1.1360 hc         1 87C       0.067200
     34 H13          2.5490     2.1960     0.4160 hc         1 87C       0.067200
     35 H14          3.0740    -0.0550     1.4780 h1         1 87C       0.078700
     36 H15          4.8310     1.5310     1.1470 h1         1 87C       0.033700
     37 H16          6.0180     1.3570    -0.8780 ho         1 87C       0.405000
     38 H17          6.7340    -0.0950     0.9130 hc         1 87C       0.046200
     39 H18          5.4640    -0.6170     2.0000 hc         1 87C       0.046200
     40 H19          5.8590    -1.5790    -0.8780 hc         1 87C       0.047200
     41 H20          6.1000    -2.5220     0.5800 hc         1 87C       0.047200
     42 H21          3.8720    -2.9880    -0.5010 h1         1 87C       0.056200
     43 H22          3.7180    -2.3870     1.1420 h1         1 87C       0.056200
     44 H23          3.3460    -0.8550    -1.3070 hn         1 87C       0.360800
     45 O18         -1.2070    -0.7980    -1.4090 o          1 87C      -0.616500
@<TRIPOS>BOND
     1     1     2 1   
     2     1     9 2   
     3     2     3 2   
     4     2     7 1   
     5     3     4 1   
     6     3     8 1   
     7     4     5 1   
     8     4    22 1   
     9     4    23 1   
    10     5     6 1   
    11     5    24 1   
    12     5    25 1   
    13     6     7 1   
    14     6    26 1   
    15     6    27 1   
    16     7    28 1   
    17     7    29 1   
    18     8    10 1   
    19     8    45 2   
    20     9    10 1   
    21     9    30 1   
    22    10    11 1   
    23    11    12 1   
    24    11    31 1   
    25    11    32 1   
    26    12    13 2   
    27    12    14 1   
    28    14    15 1   
    29    14    33 1   
    30    14    34 1   
    31    15    16 1   
    32    15    21 1   
    33    15    35 1   
    34    16    17 1   
    35    16    18 1   
    36    16    36 1   
    37    17    37 1   
    38    18    19 1   
    39    18    38 1   
    40    18    39 1   
    41    19    20 1   
    42    19    40 1   
    43    19    41 1   
    44    20    21 1   
    45    20    42 1   
    46    20    43 1   
    47    21    44 1   
@<TRIPOS>SUBSTRUCTURE
     1 87C         1 TEMP              0 ****  ****    0 ROOT
