@<TRIPOS>MOLECULE
87D
   48    50     1     0     0
SMALL
bcc


@<TRIPOS>ATOM
      1 C4          -3.5990    -1.0540    -0.2790 cc         1 87D      -0.394200
      2 C5          -3.8650    -1.9020     0.8420 c          1 87D       0.713700
      3 C7           0.0950    -0.3480     0.1420 ca         1 87D      -0.016800
      4 C10          0.3480     1.0240     0.1410 ca         1 87D       0.143100
      5 C13          2.4670    -0.7380    -0.1640 ca         1 87D       0.074600
      6 C17         -0.9370     2.9530    -0.3760 ca         1 87D       0.129100
      7 C20         -1.5840     5.2260    -1.8380 ca         1 87D      -0.153000
      8 C21         -0.8710     4.1900    -2.4270 ca         1 87D      -0.103500
      9 C22         -0.5460     3.0490    -1.7060 ca         1 87D      -0.168000
     10 C24         -3.0440     0.6230    -2.4610 c3         1 87D       0.122700
     11 C28          3.6660    -2.6460     2.2250 c3         1 87D      -0.273300
     12 C19         -1.9720     5.1140    -0.5100 ca         1 87D      -0.103500
     13 C12          2.6950     0.6320    -0.1920 ca         1 87D      -0.073000
     14 C18         -1.6480     3.9840     0.2270 ca         1 87D      -0.168000
     15 C11          1.6380     1.5100    -0.0240 ca         1 87D      -0.161000
     16 C14          1.1730    -1.2160     0.0060 ca         1 87D      -0.139000
     17 C1          -1.5420    -1.6840     1.4020 cc         1 87D       0.052600
     18 C2          -1.2680    -0.8690     0.3520 cd         1 87D      -0.155200
     19 C3          -2.3480    -0.5590    -0.5300 cd         1 87D       0.252100
     20 N6          -2.7690    -2.1920     1.6500 n          1 87D      -0.342000
     21 N16          3.5470    -1.6410    -0.3380 nu         1 87D      -0.674500
     22 O9          -4.9660    -2.3760     1.1170 o          1 87D      -0.638500
     23 O26          5.0410    -0.5770     1.3790 o          1 87D      -0.594300
     24 O27          5.5870    -2.8420     0.4350 o          1 87D      -0.594300
     25 O15         -0.7020     1.8510     0.3960 os         1 87D      -0.245200
     26 O23         -2.0250     0.1960    -1.5720 os         1 87D      -0.302900
     27 S25          4.6070    -1.8860     0.9220 s6         1 87D       1.216900
     28 H30         -4.4380    -0.8440    -0.9270 ha         1 87D       0.164000
     29 H31         -3.3650    -4.0260     2.4860 h1         1 87D       0.054367
     30 H32         -2.0390    -3.1990     3.3140 h1         1 87D       0.054367
     31 H33         -3.6960    -2.6070     3.4910 h1         1 87D       0.054367
     32 H40         -1.8360     6.1090    -2.4090 ha         1 87D       0.135000
     33 H41         -0.5660     4.2620    -3.4620 ha         1 87D       0.133500
     34 H42         -0.0030     2.2470    -2.1870 ha         1 87D       0.147500
     35 H43         -3.5280    -0.2230    -2.9530 h1         1 87D       0.049367
     36 H44         -3.7980     1.2200    -1.9450 h1         1 87D       0.049367
     37 H45         -2.5550     1.2410    -3.2090 h1         1 87D       0.049367
     38 H48          3.2960    -3.6100     1.8820 h1         1 87D       0.101700
     39 H47          4.3270    -2.7810     3.0790 h1         1 87D       0.101700
     40 H46          2.8370    -1.9990     2.5030 h1         1 87D       0.101700
     41 H39         -2.5280     5.9130    -0.0360 ha         1 87D       0.133500
     42 H35          3.6930     1.0160    -0.3480 ha         1 87D       0.166000
     43 H38         -1.9470     3.8970     1.2640 ha         1 87D       0.147500
     44 H34          1.8240     2.5770    -0.0210 ha         1 87D       0.156000
     45 H36          0.9960    -2.2850     0.0110 ha         1 87D       0.132000
     46 H29         -0.7690    -1.9530     2.1090 h4         1 87D       0.149000
     47 H37          3.3010    -2.5140    -0.7940 hn         1 87D       0.432800
     48 C8          -2.9850    -3.0560     2.8010 c3         1 87D       0.080300
@<TRIPOS>BOND
     1     1     2 1   
     2     1    19 2   
     3     1    28 1   
     4     2    20 1   
     5     2    22 2   
     6     3     4 ar  
     7     3    16 ar  
     8     3    18 1   
     9     4    15 ar  
    10     4    25 1   
    11     5    13 ar  
    12     5    16 ar  
    13     5    21 1   
    14     6     9 ar  
    15     6    14 ar  
    16     6    25 1   
    17     7     8 ar  
    18     7    12 ar  
    19     7    32 1   
    20     8     9 ar  
    21     8    33 1   
    22     9    34 1   
    23    10    26 1   
    24    10    35 1   
    25    10    36 1   
    26    10    37 1   
    27    11    27 1   
    28    11    38 1   
    29    11    39 1   
    30    11    40 1   
    31    12    14 ar  
    32    12    41 1   
    33    13    15 ar  
    34    13    42 1   
    35    14    43 1   
    36    15    44 1   
    37    16    45 1   
    38    17    18 2   
    39    17    20 1   
    40    17    46 1   
    41    18    19 1   
    42    19    26 1   
    43    20    48 1   
    44    21    27 1   
    45    21    47 1   
    46    23    27 2   
    47    24    27 2   
    48    29    48 1   
    49    30    48 1   
    50    31    48 1   
@<TRIPOS>SUBSTRUCTURE
     1 87D         1 TEMP              0 ****  ****    0 ROOT
