@<TRIPOS>MOLECULE
87D
   48    50     1     0     0
SMALL
No Charge or Current Charge


@<TRIPOS>ATOM
      1 C4          -3.9090    -1.1080    -0.3360 cc         1 87D      -0.444200
      2 C5          -4.2220    -2.1850     0.5930 c          1 87D       0.571200
      3 C7          -0.1800    -0.5050     0.3110 ca         1 87D      -0.016800
      4 C10          0.1300     0.8780     0.2310 ca         1 87D       0.143100
      5 C13          2.2260    -1.0220     0.2480 ca         1 87D       0.213000
      6 C17         -0.9000     2.9910    -0.3680 ca         1 87D       0.129100
      7 C20         -1.0500     5.3830    -1.8400 ca         1 87D      -0.135000
      8 C21         -0.5150     4.2270    -2.4350 ca         1 87D      -0.085500
      9 C22         -0.4420     3.0300    -1.7010 ca         1 87D      -0.150000
     10 C24         -3.3870     0.8600    -2.3300 c3         1 87D       0.145900
     11 C28          4.8630    -1.2130     2.2870 c3         1 87D      -0.384100
     12 C19         -1.5180     5.3430    -0.5150 ca         1 87D      -0.085500
     13 C12          2.5130     0.3530     0.1470 ca         1 87D      -0.055000
     14 C18         -1.4470     4.1450     0.2170 ca         1 87D      -0.150000
     15 C11          1.4720     1.2950     0.1550 ca         1 87D      -0.143000
     16 C14          0.8850    -1.4340     0.3350 ca         1 87D      -0.121000
     17 C1          -1.8570    -2.0910     1.2240 cc         1 87D       0.002600
     18 C2          -1.5750    -1.0070     0.4080 cd         1 87D      -0.155200
     19 C3          -2.6510    -0.5550    -0.4500 cd         1 87D       0.252100
     20 N6          -3.1310    -2.6530     1.3450 n          1 87D      -0.275000
     21 N16          3.2190    -2.0060     0.2550 nu         1 87D      -0.868100
     22 O9          -5.3480    -2.6500     0.6890 o          1 87D      -0.563000
     23 O26          5.4310    -0.9520    -0.2960 o          1 87D      -0.523500
     24 O27          5.2980    -3.2860     0.7030 o          1 87D      -0.523500
     25 O15         -0.8610     1.8280     0.3690 os         1 87D      -0.245200
     26 O23         -2.3810     0.3780    -1.4210 os         1 87D      -0.326100
     27 S25          4.8320    -1.9010     0.6450 s6         1 87D       1.186100
     28 H30         -4.7510    -0.8010    -0.9390 ha         1 87D       0.214000
     29 H31         -3.7480    -4.6430     1.7320 h1         1 87D       0.054367
     30 H32         -2.4460    -4.0570     2.8010 h1         1 87D       0.054367
     31 H33         -4.1150    -3.4730     3.0330 h1         1 87D       0.054367
     32 H40         -1.1070     6.3100    -2.4080 ha         1 87D       0.117000
     33 H41         -0.1600     4.2580    -3.4630 ha         1 87D       0.115500
     34 H42         -0.0410     2.1360    -2.1720 ha         1 87D       0.129500
     35 H43         -3.7950     0.0410    -2.9340 h1         1 87D       0.049367
     36 H44         -4.2070     1.3440    -1.7850 h1         1 87D       0.049367
     37 H45         -2.9530     1.6010    -3.0130 h1         1 87D       0.049367
     38 H48          4.2950    -1.8860     2.9380 h1         1 87D       0.101700
     39 H47          5.9110    -1.1530     2.5970 h1         1 87D       0.101700
     40 H46          4.4050    -0.2200     2.2460 h1         1 87D       0.101700
     41 H39         -1.9380     6.2370    -0.0580 ha         1 87D       0.115500
     42 H35          3.5360     0.7070     0.0740 ha         1 87D       0.148000
     43 H38         -1.8120     4.1100     1.2410 ha         1 87D       0.129500
     44 H34          1.7130     2.3550     0.1230 ha         1 87D       0.138000
     45 H36          0.6700    -2.4970     0.3900 ha         1 87D       0.114000
     46 H29         -1.1340    -2.5690     1.8750 h4         1 87D       0.199000
     47 H37          2.9500    -2.9650     0.4360 hn         1 87D       0.488000
     48 C8          -3.3710    -3.7730     2.2840 c3         1 87D       0.080300
@<TRIPOS>BOND
     1     1     2 1   
     2     1    19 2   
     3     1    28 1   
     4     2    20 1   
     5     2    22 2   
     6     3     4 ar  
     7     3    16 ar  
     8     3    18 1   
     9     4    15 ar  
    10     4    25 1   
    11     5    13 ar  
    12     5    16 ar  
    13     5    21 1   
    14     6     9 ar  
    15     6    14 ar  
    16     6    25 1   
    17     7     8 ar  
    18     7    12 ar  
    19     7    32 1   
    20     8     9 ar  
    21     8    33 1   
    22     9    34 1   
    23    10    26 1   
    24    10    35 1   
    25    10    36 1   
    26    10    37 1   
    27    11    27 1   
    28    11    38 1   
    29    11    39 1   
    30    11    40 1   
    31    12    14 ar  
    32    12    41 1   
    33    13    15 ar  
    34    13    42 1   
    35    14    43 1   
    36    15    44 1   
    37    16    45 1   
    38    17    18 2   
    39    17    20 1   
    40    17    46 1   
    41    18    19 1   
    42    19    26 1   
    43    20    48 1   
    44    21    27 1   
    45    21    47 1   
    46    23    27 2   
    47    24    27 2   
    48    29    48 1   
    49    30    48 1   
    50    31    48 1   
@<TRIPOS>SUBSTRUCTURE
     1 87D         1 TEMP              0 ****  ****    0 ROOT
