@<TRIPOS>MOLECULE
87E
   83    85     1     0     0
SMALL
abcg2


@<TRIPOS>ATOM
      1 N1          15.6570    10.4730    13.8640 ns         1 87E      -0.478500
      2 C2          15.8180     9.2470    14.4560 c          1 87E       0.623000
      3 O2          16.9070     8.8330    14.7910 o          1 87E      -0.606000
      4 N3           8.3900     6.5290     9.3750 ns         1 87E      -0.494900
      5 C4          13.3130    10.2570    13.6520 cc         1 87E      -0.368200
      6 O4          15.0040     7.6240    17.5970 oh         1 87E      -0.723000
      7 C5          14.6880     7.2260    15.2570 c5         1 87E       0.346700
      8 C6          14.0730     7.1780    16.6540 c5         1 87E       0.072300
      9 P1           9.7340     7.0560    15.0780 p5         1 87E       1.468800
     10 P2          10.1320     7.5620    12.1280 p5         1 87E       1.483800
     11 C1          14.4810    11.0760    13.4410 c          1 87E       0.591200
     12 O1          14.4990    12.1870    12.9480 o          1 87E      -0.576000
     13 N2          14.6440     8.5420    14.6360 n          1 87E      -0.309000
     14 C3          13.4430     9.0530    14.2290 cd         1 87E       0.025600
     15 O3          13.9350     6.3390    14.4860 os         1 87E      -0.437000
     16 N4           6.3920     5.9400     6.4710 ns         1 87E      -0.440900
     17 C7          13.7120     5.6930    16.7550 c5         1 87E       0.113300
     18 O7          10.1910     7.8960    13.7340 os         1 87E      -0.731800
     19 C8          13.2860     5.3700    15.3210 c5         1 87E       0.166300
     20 O8           8.8940     5.8730    14.7150 o          1 87E      -0.842500
     21 C9          11.7940     5.3720    15.0730 c3         1 87E       0.205600
     22 O9           9.2870     8.0740    16.0730 o          1 87E      -0.842500
     23 C10          7.6050     6.7430    11.6840 c6         1 87E       0.431300
     24 O10         10.5140     6.1410    11.8560 o          1 87E      -0.851000
     25 C11          5.7330     8.1200    12.1420 c6         1 87E       0.150300
     26 O11         10.8220     8.7010    11.4510 o          1 87E      -0.851000
     27 C12          5.1880     8.0000    10.7130 c6         1 87E       0.136300
     28 O12          8.5210     7.7890    11.8390 os         1 87E      -0.644400
     29 C13          6.3500     7.8050     9.7480 c6         1 87E       0.173300
     30 O13          6.4820     6.9630    12.4740 os         1 87E      -0.427000
     31 C14          7.2160     6.6310    10.2020 c6         1 87E       0.038700
     32 O14          5.8360     7.5480     8.4610 os         1 87E      -0.464000
     33 C15          4.6570     8.2990    13.1920 c3         1 87E       0.157600
     34 O15          4.5010     9.1700    10.3410 oh         1 87E      -0.728000
     35 C16          6.4430     8.1980     7.3680 c3         1 87E       0.102300
     36 O16          3.7130     7.2580    13.1050 oh         1 87E      -0.708000
     37 C17          6.6980     7.2130     6.2260 c          1 87E       0.585100
     38 O17          7.1460     7.6250     5.1610 o          1 87E      -0.690100
     39 C18          5.5760     9.3550     6.8920 c3         1 87E      -0.097100
     40 O18          8.5260     4.2720     9.3710 o          1 87E      -0.598100
     41 C20         10.3090     5.5100     8.3480 c3         1 87E      -0.170100
     42 C21          6.4890     4.8640     5.5080 c3         1 87E      -0.037300
     43 C22          5.4510     3.7740     5.8840 c          1 87E       0.722000
     44 C23          7.9050     4.2910     5.5350 c3         1 87E       0.147600
     45 H1          16.5120    11.0010    13.7360 hn         1 87E       0.309500
     46 H3          12.3440    10.6090    13.3350 ha         1 87E       0.264000
     47 H4          14.5350     7.9090    18.3880 ho         1 87E       0.500000
     48 H5          15.7400     6.9360    15.3010 h2         1 87E       0.086700
     49 H6          13.1530     7.7730    16.6740 h1         1 87E       0.107700
     50 H7          12.5830     8.4190    14.3930 h4         1 87E       0.277000
     51 H8           6.0320     5.6850     7.3780 hn         1 87E       0.363500
     52 H10         12.9040     5.5110    17.4750 h1         1 87E       0.070700
     53 H11         13.6530     4.3740    15.0500 h1         1 87E       0.061700
     54 H12         11.3770     4.4800    15.5540 h1         1 87E       0.059700
     55 H13         11.6150     5.2740    13.9980 h1         1 87E       0.059700
     56 H15          8.0310     5.7950    12.0190 h2         1 87E       0.130700
     57 H17          6.3640     9.0170    12.1970 h1         1 87E       0.071700
     58 H18          4.5420     7.1150    10.6480 h1         1 87E       0.066700
     59 H19          6.9500     8.7270     9.7450 h1         1 87E       0.059700
     60 H20          6.6300     5.7160    10.0840 h1         1 87E       0.102700
     61 H21          5.1420     8.3300    14.1770 h1         1 87E       0.022200
     62 H22          4.1980     9.2830    13.0410 h1         1 87E       0.022200
     63 H23          3.5880     9.0990    10.6330 ho         1 87E       0.486000
     64 H24          7.4270     8.5920     7.6520 h1         1 87E       0.054700
     65 H25          3.0140     7.4320    13.7410 ho         1 87E       0.472000
     66 H26          5.4430    10.0780     7.6970 hc         1 87E       0.034033
     67 H27          6.0350     9.8690     6.0510 hc         1 87E       0.034033
     68 H28          4.5900     9.0030     6.5850 hc         1 87E       0.034033
     69 H30         10.9180     4.6180     8.4740 hc         1 87E       0.049700
     70 H31         10.1090     5.6360     7.2830 hc         1 87E       0.049700
     71 H32         10.8770     6.3760     8.6840 hc         1 87E       0.049700
     72 H33          6.2790     5.2570     4.5110 h1         1 87E       0.054700
     73 H34          8.8950     2.9000     4.6250 ho         1 87E       0.405000
     74 H35          8.6190     5.0980     5.3220 h1         1 87E       0.020200
     75 H36          8.1130     3.9340     6.5520 h1         1 87E       0.020200
     76 O5          14.8510     4.9250    17.0570 oh         1 87E      -0.735000
     77 O6          11.2100     6.5420    15.6050 os         1 87E      -0.629400
     78 C19          9.0060     5.3610     9.0930 c          1 87E       0.627100
     79 O19          5.3330     3.5550     7.1070 o          1 87E      -0.723500
     80 O20          4.8550     3.2160     4.9490 o          1 87E      -0.723500
     81 O21          8.0020     3.2540     4.5880 oh         1 87E      -0.648000
     82 H9          15.3030     5.3440    17.8000 ho         1 87E       0.498000
     83 H2           8.9160     7.3760     9.2250 hn         1 87E       0.310500
@<TRIPOS>BOND
     1     1     2 1   
     2     1    11 1   
     3     1    45 1   
     4     2     3 2   
     5     2    13 1   
     6     4    31 1   
     7     4    78 1   
     8     4    83 1   
     9     5    11 1   
    10     5    14 2   
    11     5    46 1   
    12     6     8 1   
    13     6    47 1   
    14     7     8 1   
    15     7    13 1   
    16     7    15 1   
    17     7    48 1   
    18     8    17 1   
    19     8    49 1   
    20     9    18 1   
    21     9    20 1   
    22     9    22 1   
    23     9    77 1   
    24    10    18 1   
    25    10    24 1   
    26    10    26 1   
    27    10    28 1   
    28    11    12 2   
    29    13    14 1   
    30    14    50 1   
    31    15    19 1   
    32    16    37 1   
    33    16    42 1   
    34    16    51 1   
    35    17    19 1   
    36    17    52 1   
    37    17    76 1   
    38    19    21 1   
    39    19    53 1   
    40    21    54 1   
    41    21    55 1   
    42    21    77 1   
    43    23    28 1   
    44    23    30 1   
    45    23    31 1   
    46    23    56 1   
    47    25    27 1   
    48    25    30 1   
    49    25    33 1   
    50    25    57 1   
    51    27    29 1   
    52    27    34 1   
    53    27    58 1   
    54    29    31 1   
    55    29    32 1   
    56    29    59 1   
    57    31    60 1   
    58    32    35 1   
    59    33    36 1   
    60    33    61 1   
    61    33    62 1   
    62    34    63 1   
    63    35    37 1   
    64    35    39 1   
    65    35    64 1   
    66    36    65 1   
    67    37    38 2   
    68    39    66 1   
    69    39    67 1   
    70    39    68 1   
    71    40    78 2   
    72    41    69 1   
    73    41    70 1   
    74    41    71 1   
    75    41    78 1   
    76    42    43 1   
    77    42    44 1   
    78    42    72 1   
    79    43    79 1   
    80    43    80 1   
    81    44    74 1   
    82    44    75 1   
    83    44    81 1   
    84    73    81 1   
    85    76    82 1   
@<TRIPOS>SUBSTRUCTURE
     1 87E         1 TEMP              0 ****  ****    0 ROOT
