@<TRIPOS>MOLECULE
87E
   83    85     1     0     0
SMALL
No Charge or Current Charge


@<TRIPOS>ATOM
      1 N1          15.3090    10.8130    13.1520 ns         1 87E      -0.478500
      2 C2          15.5530     9.9000    14.1310 c          1 87E       0.623000
      3 O2          16.5880     9.9460    14.7740 o          1 87E      -0.606000
      4 N3           8.3750     5.3270     9.7200 ns         1 87E      -0.494900
      5 C4          13.2140     9.8850    12.6040 cc         1 87E      -0.368200
      6 O4          14.5430     9.3330    17.4910 oh         1 87E      -0.723000
      7 C5          14.7710     7.9090    15.3940 c5         1 87E       0.346700
      8 C6          13.9350     8.3200    16.6530 c5         1 87E       0.072300
      9 P1           9.9940     6.5510    15.0550 p5         1 87E       1.468800
     10 P2           9.9420     6.0170    12.4260 p5         1 87E       1.483800
     11 C1          14.2190    10.9090    12.3480 c          1 87E       0.591200
     12 O1          14.1140    11.7770    11.5000 o          1 87E      -0.576000
     13 N2          14.5500     8.9360    14.3450 n          1 87E      -0.309000
     14 C3          13.3840     8.9260    13.5760 cd         1 87E       0.025600
     15 O3          14.2290     6.6360    14.9880 os         1 87E      -0.437000
     16 N4           6.3250     6.8170     6.2180 ns         1 87E      -0.440900
     17 C7          13.9040     6.9440    17.3760 c5         1 87E       0.113300
     18 O7          10.6390     6.7480    13.6310 os         1 87E      -0.731800
     19 C8          13.7130     5.9560    16.1660 c5         1 87E       0.166300
     20 O8           9.3550     5.2310    15.3230 o          1 87E      -0.842500
     21 C9          12.2450     5.5070    15.9090 c3         1 87E       0.205600
     22 O9           9.1230     7.7040    15.4290 o          1 87E      -0.842500
     23 C10          7.3990     5.5900    12.0780 c6         1 87E       0.431300
     24 O10         10.1410     4.5420    12.4780 o          1 87E      -0.851000
     25 C11          5.6570     7.2520    12.5310 c6         1 87E       0.150300
     26 O11         10.4500     6.5680    11.1380 o          1 87E      -0.851000
     27 C12          5.4200     7.5010    11.0100 c6         1 87E       0.136300
     28 O12          8.4110     6.4440    12.6260 os         1 87E      -0.644400
     29 C13          6.7280     7.1980    10.2250 c6         1 87E       0.173300
     30 O13          6.1560     5.9030    12.7440 os         1 87E      -0.427000
     31 C14          7.1990     5.7400    10.5250 c6         1 87E       0.038700
     32 O14          6.5080     7.4390     8.8080 os         1 87E      -0.464000
     33 C15          4.3570     7.4250    13.3860 c3         1 87E       0.157600
     34 O15          4.9780     8.8470    10.7310 oh         1 87E      -0.728000
     35 C16          7.6320     7.9090     8.0100 c3         1 87E       0.102300
     36 O16          3.3410     6.4380    13.1120 oh         1 87E      -0.708000
     37 C17          7.4890     7.4890     6.5170 c          1 87E       0.585100
     38 O17          8.3430     7.7220     5.6680 o          1 87E      -0.690100
     39 C18          7.7150     9.4430     8.1810 c3         1 87E      -0.097100
     40 O18          7.3290     4.0220     8.1730 o          1 87E      -0.598100
     41 C20          9.7020     4.3650     7.9130 c3         1 87E      -0.170100
     42 C21          5.9690     6.2420     4.8970 c3         1 87E      -0.037300
     43 C22          4.4270     6.0690     4.7890 c          1 87E       0.722000
     44 C23          6.7110     4.9110     4.6380 c3         1 87E       0.147600
     45 H1          16.0290    11.5020    13.0050 hn         1 87E       0.309500
     46 H3          12.3310     9.9250    11.9750 ha         1 87E       0.264000
     47 H4          14.5270    10.1840    16.9920 ho         1 87E       0.500000
     48 H5          15.8420     7.8190    15.6150 h2         1 87E       0.086700
     49 H6          12.9170     8.6160    16.3570 h1         1 87E       0.107700
     50 H7          12.6740     8.1320    13.8080 h4         1 87E       0.277000
     51 H8           5.7010     6.6610     7.0050 hn         1 87E       0.363500
     52 H10         13.0590     6.8850    18.0780 h1         1 87E       0.070700
     53 H11         14.3090     5.0470    16.3210 h1         1 87E       0.061700
     54 H12         11.9420     4.8240    16.7140 h1         1 87E       0.059700
     55 H13         12.2100     4.9460    14.9650 h1         1 87E       0.059700
     56 H15          7.6450     4.5370    12.2980 h2         1 87E       0.130700
     57 H17          6.4000     7.9730    12.9030 h1         1 87E       0.071700
     58 H18          4.6540     6.7870    10.6690 h1         1 87E       0.066700
     59 H19          7.5030     7.8930    10.5810 h1         1 87E       0.059700
     60 H20          6.3690     5.0710    10.2590 h1         1 87E       0.102700
     61 H21          4.6460     7.3720    14.4440 h1         1 87E       0.022200
     62 H22          3.9580     8.4340    13.2160 h1         1 87E       0.022200
     63 H23          5.1310     8.9710     9.7650 ho         1 87E       0.486000
     64 H24          8.5730     7.4710     8.3620 h1         1 87E       0.054700
     65 H25          2.6030     6.6060    13.7420 ho         1 87E       0.472000
     66 H26          7.8690     9.7190     9.2300 hc         1 87E       0.034033
     67 H27          8.5560     9.8470     7.6030 hc         1 87E       0.034033
     68 H28          6.7950     9.9220     7.8240 hc         1 87E       0.034033
     69 H30          9.6470     3.7300     7.0220 hc         1 87E       0.049700
     70 H31         10.1150     5.3540     7.6810 hc         1 87E       0.049700
     71 H32         10.4230     3.9800     8.6430 hc         1 87E       0.049700
     72 H33          6.2720     6.9610     4.1260 h1         1 87E       0.054700
     73 H34          6.9770     3.6100     3.1970 ho         1 87E       0.405000
     74 H35          7.7890     5.0650     4.7840 h1         1 87E       0.020200
     75 H36          6.3830     4.1630     5.3720 h1         1 87E       0.020200
     76 O5          15.1440     6.7540    18.0720 oh         1 87E      -0.735000
     77 O6          11.3750     6.6520    15.8760 os         1 87E      -0.629400
     78 C19          8.3520     4.5400     8.5950 c          1 87E       0.627100
     79 O19          3.8470     5.4610     5.6800 o          1 87E      -0.723500
     80 O20          3.8360     6.6840     3.9110 o          1 87E      -0.723500
     81 O21          6.4650     4.4420     3.3070 oh         1 87E      -0.648000
     82 H9          15.4090     7.6800    18.3020 ho         1 87E       0.498000
     83 H2           9.2820     5.7170     9.9780 hn         1 87E       0.310500
@<TRIPOS>BOND
     1     1     2 1   
     2     1    11 1   
     3     1    45 1   
     4     2     3 2   
     5     2    13 1   
     6     4    31 1   
     7     4    78 1   
     8     4    83 1   
     9     5    11 1   
    10     5    14 2   
    11     5    46 1   
    12     6     8 1   
    13     6    47 1   
    14     7     8 1   
    15     7    13 1   
    16     7    15 1   
    17     7    48 1   
    18     8    17 1   
    19     8    49 1   
    20     9    18 1   
    21     9    20 1   
    22     9    22 1   
    23     9    77 1   
    24    10    18 1   
    25    10    24 1   
    26    10    26 1   
    27    10    28 1   
    28    11    12 2   
    29    13    14 1   
    30    14    50 1   
    31    15    19 1   
    32    16    37 1   
    33    16    42 1   
    34    16    51 1   
    35    17    19 1   
    36    17    52 1   
    37    17    76 1   
    38    19    21 1   
    39    19    53 1   
    40    21    54 1   
    41    21    55 1   
    42    21    77 1   
    43    23    28 1   
    44    23    30 1   
    45    23    31 1   
    46    23    56 1   
    47    25    27 1   
    48    25    30 1   
    49    25    33 1   
    50    25    57 1   
    51    27    29 1   
    52    27    34 1   
    53    27    58 1   
    54    29    31 1   
    55    29    32 1   
    56    29    59 1   
    57    31    60 1   
    58    32    35 1   
    59    33    36 1   
    60    33    61 1   
    61    33    62 1   
    62    34    63 1   
    63    35    37 1   
    64    35    39 1   
    65    35    64 1   
    66    36    65 1   
    67    37    38 2   
    68    39    66 1   
    69    39    67 1   
    70    39    68 1   
    71    40    78 2   
    72    41    69 1   
    73    41    70 1   
    74    41    71 1   
    75    41    78 1   
    76    42    43 1   
    77    42    44 1   
    78    42    72 1   
    79    43    79 1   
    80    43    80 1   
    81    44    74 1   
    82    44    75 1   
    83    44    81 1   
    84    73    81 1   
    85    76    82 1   
@<TRIPOS>SUBSTRUCTURE
     1 87E         1 TEMP              0 ****  ****    0 ROOT
