@<TRIPOS>MOLECULE
87F
   40    42     1     0     0
SMALL
No Charge or Current Charge


@<TRIPOS>ATOM
      1 C1           5.3090     0.2740    -1.2350 ca         1 87F      -0.103000
      2 C2           6.1710    -0.7050    -0.7120 ca         1 87F      -0.075000
      3 C3           5.7520    -1.4990     0.3650 ca         1 87F      -0.133000
      4 C7           2.0250     1.6170    -0.7190 cc         1 87F       0.500800
      5 C6           4.0260     0.4740    -0.6930 ca         1 87F       0.179400
      6 O2          -5.1220     1.5680     0.9930 o          1 87F      -0.515100
      7 C4           4.4740    -1.3100     0.9160 ca         1 87F      -0.041000
      8 C5           3.6120    -0.3240     0.3870 ca         1 87F      -0.202600
      9 C8           2.2570    -0.1120     0.9560 c          1 87F       0.572600
     10 N1           3.2310     1.4710    -1.2730 nd         1 87F      -0.622100
     11 N2           1.5070     0.8910     0.3440 n          1 87F      -0.338300
     12 C9           0.1450     1.1900     0.8430 c3         1 87F       0.094000
     13 C10         -0.9570     0.4940     0.0170 c3         1 87F      -0.100400
     14 C11         -2.3850     0.8120     0.5250 c3         1 87F      -0.068400
     15 C12         -3.5370     0.1850    -0.3190 c6         1 87F       0.074500
     16 N3          -3.4500    -1.3130    -0.2820 n7         1 87F      -0.855400
     17 C16         -4.5370    -1.9700    -1.0470 c6         1 87F       0.155800
     18 C13         -4.9490     0.7080     0.1340 c          1 87F       0.585100
     19 C14         -6.1310    -0.0080    -0.5380 c6         1 87F      -0.181400
     20 C15         -5.9360    -1.5510    -0.5250 c6         1 87F      -0.068400
     21 H1           5.6410     0.8860    -2.0700 ha         1 87F       0.133000
     22 H2           7.1600    -0.8470    -1.1430 ha         1 87F       0.117000
     23 H3           6.4150    -2.2580     0.7740 ha         1 87F       0.120000
     24 H4           1.3480     2.3670    -1.1110 h5         1 87F       0.045800
     25 H5           4.1580    -1.9320     1.7520 ha         1 87F       0.136000
     26 H6           0.0520     0.8980     1.8970 h1         1 87F       0.065700
     27 H7          -0.0120     2.2770     0.8040 h1         1 87F       0.065700
     28 H8          -0.8710     0.8020    -1.0320 hc         1 87F       0.051200
     29 H9          -0.7860    -0.5890     0.0500 hc         1 87F       0.051200
     30 H10         -2.4730     0.4860     1.5690 hc         1 87F       0.063700
     31 H11         -2.5010     1.9040     0.5360 hc         1 87F       0.063700
     32 H12         -3.4180     0.5160    -1.3620 h1         1 87F       0.032700
     33 H13         -2.5440    -1.6080    -0.6700 hn         1 87F       0.420000
     34 H15         -4.4470    -1.7040    -2.1110 h1         1 87F       0.034700
     35 H16         -4.4290    -3.0620    -0.9690 h1         1 87F       0.034700
     36 H17         -7.0850     0.3090    -0.0970 hc         1 87F       0.066200
     37 H18         -6.1030     0.2800    -1.5970 hc         1 87F       0.066200
     38 H19         -6.7160    -2.0320    -1.1310 hc         1 87F       0.055700
     39 H20         -6.0660    -1.9270     0.5000 hc         1 87F       0.055700
     40 O1           1.8350    -0.7770     1.8940 o          1 87F      -0.534000
@<TRIPOS>BOND
     1     1     2 ar  
     2     1     5 ar  
     3     1    21 1   
     4     2     3 ar  
     5     2    22 1   
     6     3     7 ar  
     7     3    23 1   
     8     4    10 2   
     9     4    11 1   
    10     4    24 1   
    11     5     8 ar  
    12     5    10 1   
    13     6    18 2   
    14     7     8 ar  
    15     7    25 1   
    16     8     9 1   
    17     9    11 1   
    18     9    40 2   
    19    11    12 1   
    20    12    13 1   
    21    12    26 1   
    22    12    27 1   
    23    13    14 1   
    24    13    28 1   
    25    13    29 1   
    26    14    15 1   
    27    14    30 1   
    28    14    31 1   
    29    15    16 1   
    30    15    18 1   
    31    15    32 1   
    32    16    17 1   
    33    16    33 1   
    34    17    20 1   
    35    17    34 1   
    36    17    35 1   
    37    18    19 1   
    38    19    20 1   
    39    19    36 1   
    40    19    37 1   
    41    20    38 1   
    42    20    39 1   
@<TRIPOS>SUBSTRUCTURE
     1 87F         1 TEMP              0 ****  ****    0 ROOT
