@<TRIPOS>MOLECULE
87F
   40    42     1     0     0
SMALL
abcg2


@<TRIPOS>ATOM
      1 C1           5.2360     0.3230    -1.1770 ca         1 87F      -0.103000
      2 C2           6.0030    -0.7270    -0.7240 ca         1 87F      -0.075000
      3 C3           5.5150    -1.5970     0.2590 ca         1 87F      -0.133000
      4 C7           2.0370     1.7400    -0.6170 cc         1 87F       0.500800
      5 C6           3.9520     0.5300    -0.6540 ca         1 87F       0.179400
      6 O2          -5.0020     1.5860     0.8480 o          1 87F      -0.515100
      7 C4           4.2560    -1.4050     0.7830 ca         1 87F      -0.041000
      8 C5           3.4670    -0.3410     0.3320 ca         1 87F      -0.202600
      9 C8           2.1310    -0.1310     0.8800 c          1 87F       0.572600
     10 N1           3.2030     1.5840    -1.1230 nd         1 87F      -0.622100
     11 N2           1.4710     0.9640     0.3480 n          1 87F      -0.338300
     12 C9           0.1110     1.2680     0.7900 c3         1 87F       0.094000
     13 C10         -0.9390     0.4610     0.0410 c3         1 87F      -0.100400
     14 C11         -2.3400     0.8330     0.5140 c3         1 87F      -0.068400
     15 C12         -3.4410     0.1630    -0.2940 c6         1 87F       0.074500
     16 N3          -3.4190    -1.2860    -0.1290 n7         1 87F      -0.855400
     17 C16         -4.3950    -1.9680    -0.9610 c6         1 87F       0.155800
     18 C13         -4.8300     0.6560     0.0930 c          1 87F       0.585100
     19 C14         -5.9690    -0.0670    -0.5770 c6         1 87F      -0.181400
     20 C15         -5.7940    -1.5840    -0.5150 c6         1 87F      -0.068400
     21 H1           5.6080     0.9980    -1.9360 ha         1 87F       0.133000
     22 H2           6.9940    -0.8810    -1.1300 ha         1 87F       0.117000
     23 H3           6.1290    -2.4160     0.6090 ha         1 87F       0.120000
     24 H4           1.4190     2.5610    -0.9620 h5         1 87F       0.045800
     25 H5           3.8710    -2.0710     1.5430 ha         1 87F       0.136000
     26 H6           0.0470     1.0910     1.8620 h1         1 87F       0.065700
     27 H7          -0.0480     2.3350     0.6330 h1         1 87F       0.065700
     28 H8          -0.8440     0.6530    -1.0320 hc         1 87F       0.051200
     29 H9          -0.7450    -0.6020     0.1970 hc         1 87F       0.051200
     30 H10         -2.4560     0.5750     1.5700 hc         1 87F       0.063700
     31 H11         -2.4610     1.9160     0.4390 hc         1 87F       0.063700
     32 H12         -3.3160     0.4510    -1.3580 h1         1 87F       0.032700
     33 H13         -2.4960    -1.6300    -0.3600 hn         1 87F       0.420000
     34 H15         -4.2770    -1.7290    -2.0310 h1         1 87F       0.034700
     35 H16         -4.2490    -3.0440    -0.8560 h1         1 87F       0.034700
     36 H17         -6.9180     0.2540    -0.1460 hc         1 87F       0.066200
     37 H18         -5.9630     0.2490    -1.6270 hc         1 87F       0.066200
     38 H19         -6.5400    -2.0670    -1.1470 hc         1 87F       0.055700
     39 H20         -5.9570    -1.9340     0.5060 hc         1 87F       0.055700
     40 O1           1.6130    -0.8320     1.7310 o          1 87F      -0.534000
@<TRIPOS>BOND
     1     1     2 ar  
     2     1     5 ar  
     3     1    21 1   
     4     2     3 ar  
     5     2    22 1   
     6     3     7 ar  
     7     3    23 1   
     8     4    10 2   
     9     4    11 1   
    10     4    24 1   
    11     5     8 ar  
    12     5    10 1   
    13     6    18 2   
    14     7     8 ar  
    15     7    25 1   
    16     8     9 1   
    17     9    11 1   
    18     9    40 2   
    19    11    12 1   
    20    12    13 1   
    21    12    26 1   
    22    12    27 1   
    23    13    14 1   
    24    13    28 1   
    25    13    29 1   
    26    14    15 1   
    27    14    30 1   
    28    14    31 1   
    29    15    16 1   
    30    15    18 1   
    31    15    32 1   
    32    16    17 1   
    33    16    33 1   
    34    17    20 1   
    35    17    34 1   
    36    17    35 1   
    37    18    19 1   
    38    19    20 1   
    39    19    36 1   
    40    19    37 1   
    41    20    38 1   
    42    20    39 1   
@<TRIPOS>SUBSTRUCTURE
     1 87F         1 TEMP              0 ****  ****    0 ROOT
