@<TRIPOS>MOLECULE
87G
   51    54     1     0     0
SMALL
abcg2


@<TRIPOS>ATOM
      1 C4           1.8150   -10.6320    12.6720 ca         1 87G      -0.132000
      2 C5          -0.9780    -6.1250    11.1620 ca         1 87G      -0.117000
      3 C6           3.8220   -10.7000    11.3170 ca         1 87G      -0.160000
      4 C7          -1.0270    -8.9110     9.8700 cc         1 87G      -0.121000
      5 C8           0.1420    -6.8940    10.8290 ca         1 87G       0.027000
      6 C10          0.8580    -8.3530     8.7780 cd         1 87G      -0.008800
      7 C13          2.5740    -8.6280    11.5540 ca         1 87G       0.092100
      8 C15          3.6460    -9.3580    11.0430 ca         1 87G       0.173000
      9 C17          2.0390    -7.7850     8.2230 cd         1 87G      -0.210200
     10 C20         -2.4350    -5.2850    15.5730 c3         1 87G      -0.065100
     11 C21         -1.7350   -10.9600     8.6430 c3         1 87G       0.056900
     12 C22         -2.9690    -6.0840    14.3950 c3         1 87G      -0.349400
     13 C1           0.3120    -4.8130    12.7170 ca         1 87G      -0.139000
     14 C2           1.4380    -5.5560    12.3910 ca         1 87G      -0.088000
     15 C3           1.6650    -9.2790    12.3790 ca         1 87G      -0.126000
     16 C9           0.0080    -7.9900     9.8670 cd         1 87G      -0.149000
     17 C11         -0.9060    -5.1120    12.1110 ca         1 87G       0.252000
     18 C12          1.3480    -6.5940    11.4790 ca         1 87G       0.085100
     19 C14          2.8860   -11.3140    12.1320 ca         1 87G       0.162000
     20 C16          0.2880    -9.4920     8.1780 cc         1 87G      -0.250600
     21 C18          2.5820    -8.3960     7.1440 cc         1 87G      -0.065400
     22 C19          0.8530   -10.1460     7.0370 c          1 87G       0.586600
     23 N23         -0.8650    -9.8110     8.8630 na         1 87G       0.059000
     24 N24          2.0100    -9.5220     6.6010 ns         1 87G      -0.376100
     25 O26          0.4190   -11.1520     6.4520 o          1 87G      -0.586000
     26 O27         -4.2770    -3.9730    13.4580 o          1 87G      -0.531000
     27 O28         -3.9530    -5.9440    11.9760 o          1 87G      -0.531000
     28 O29          2.5100    -7.3050    11.2110 os         1 87G      -0.235200
     29 F30          3.0400   -12.6340    12.4080 f          1 87G      -0.177000
     30 F31          4.5460    -8.7290    10.2600 f          1 87G      -0.164000
     31 S32         -3.4480    -5.0660    13.0060 s6         1 87G       1.203100
     32 H4           1.1060   -11.1430    13.3080 ha         1 87G       0.136000
     33 H5          -1.9130    -6.3180    10.6590 ha         1 87G       0.155000
     34 H6           4.6610   -11.2420    10.9050 ha         1 87G       0.152000
     35 H7          -1.8630    -8.9940    10.5460 h4         1 87G       0.154000
     36 H17          2.5040    -6.9080     8.6440 ha         1 87G       0.213000
     37 H8          -2.1960    -5.9720    16.3850 hc         1 87G       0.048367
     38 H9          -1.5250    -4.7450    15.3100 hc         1 87G       0.048367
     39 H10         -3.1760    -4.5720    15.9320 hc         1 87G       0.048367
     40 H11         -1.8250   -11.1510     7.5790 h1         1 87G       0.064700
     41 H12         -1.3290   -11.8480     9.1300 h1         1 87G       0.064700
     42 H13         -2.7120   -10.7330     9.0640 h1         1 87G       0.064700
     43 H14         -2.2360    -6.7900    14.0000 h1         1 87G       0.101700
     44 H15         -3.8750    -6.6390    14.6440 h1         1 87G       0.101700
     45 H1           0.3750    -4.0160    13.4480 ha         1 87G       0.121000
     46 H2           2.3890    -5.3540    12.8650 ha         1 87G       0.136000
     47 H3           0.8290    -8.7310    12.7890 ha         1 87G       0.128000
     48 H18          3.4790    -8.0520     6.6520 h4         1 87G       0.203000
     49 H24          2.4490    -9.9480     5.7960 hn         1 87G       0.327500
     50 H25         -1.8640    -3.5020    12.9700 hn         1 87G       0.493000
     51 N25         -2.0610    -4.3470    12.4430 nu         1 87G      -0.875100
@<TRIPOS>BOND
     1     1    15 ar  
     2     1    19 ar  
     3     1    32 1   
     4     2     5 ar  
     5     2    17 ar  
     6     2    33 1   
     7     3     8 ar  
     8     3    19 ar  
     9     3    34 1   
    10     4    16 2   
    11     4    23 1   
    12     4    35 1   
    13     5    16 1   
    14     5    18 ar  
    15     6     9 1   
    16     6    16 1   
    17     6    20 2   
    18     7     8 ar  
    19     7    15 ar  
    20     7    28 1   
    21     8    30 1   
    22     9    21 2   
    23     9    36 1   
    24    10    12 1   
    25    10    37 1   
    26    10    38 1   
    27    10    39 1   
    28    11    23 1   
    29    11    40 1   
    30    11    41 1   
    31    11    42 1   
    32    12    31 1   
    33    12    43 1   
    34    12    44 1   
    35    13    14 ar  
    36    13    17 ar  
    37    13    45 1   
    38    14    18 ar  
    39    14    46 1   
    40    15    47 1   
    41    17    51 1   
    42    18    28 1   
    43    19    29 1   
    44    20    22 1   
    45    20    23 1   
    46    21    24 1   
    47    21    48 1   
    48    22    24 1   
    49    22    25 2   
    50    24    49 1   
    51    26    31 2   
    52    27    31 2   
    53    31    51 1   
    54    50    51 1   
@<TRIPOS>SUBSTRUCTURE
     1 87G         1 TEMP              0 ****  ****    0 ROOT
