@<TRIPOS>MOLECULE
87G
   51    54     1     0     0
SMALL
No Charge or Current Charge


@<TRIPOS>ATOM
      1 C4           2.0500   -10.5100    12.7960 ca         1 87G      -0.132000
      2 C5          -0.8900    -6.1430    11.3760 ca         1 87G      -0.117000
      3 C6           3.8410   -10.7140    11.1570 ca         1 87G      -0.160000
      4 C7          -1.0650    -8.8640    10.1240 cc         1 87G      -0.121000
      5 C8           0.2460    -6.8710    10.9580 ca         1 87G       0.027000
      6 C10          0.7880    -8.4490     8.9490 cd         1 87G      -0.008800
      7 C13          2.7660    -8.5490    11.5290 ca         1 87G       0.092100
      8 C15          3.7280    -9.3450    10.8680 ca         1 87G       0.173000
      9 C17          1.9380    -7.8210     8.3560 cd         1 87G      -0.210200
     10 C20         -2.6520    -5.9560    15.2520 c3         1 87G      -0.065100
     11 C21         -1.8440   -10.9360     8.8760 c3         1 87G       0.056900
     12 C22         -3.3610    -6.1940    13.8950 c3         1 87G      -0.349400
     13 C1           0.5050    -4.5870    12.6030 ca         1 87G      -0.139000
     14 C2           1.6440    -5.3180    12.2320 ca         1 87G      -0.088000
     15 C3           1.9350    -9.1370    12.5090 ca         1 87G      -0.126000
     16 C9           0.0430    -8.0500    10.0860 cd         1 87G      -0.149000
     17 C11         -0.7700    -5.0040    12.1960 ca         1 87G       0.252000
     18 C12          1.5230    -6.4650    11.4320 ca         1 87G       0.085100
     19 C14          2.9980   -11.2930    12.1160 ca         1 87G       0.162000
     20 C16          0.2340    -9.5560     8.3750 cc         1 87G      -0.250600
     21 C18          2.4940    -8.4140     7.2360 cc         1 87G      -0.065400
     22 C19          0.8070   -10.2080     7.1840 c          1 87G       0.586600
     23 N23         -0.9090    -9.8310     9.1240 na         1 87G       0.059000
     24 N24          1.9300    -9.5730     6.7070 ns         1 87G      -0.376100
     25 O26          0.3520   -11.2050     6.6450 o          1 87G      -0.586000
     26 O27         -4.0660    -3.6410    13.5860 o          1 87G      -0.531000
     27 O28         -3.9560    -5.1170    11.5210 o          1 87G      -0.531000
     28 O29          2.6640    -7.2070    11.2120 os         1 87G      -0.235200
     29 F30          3.1040   -12.6100    12.3950 f          1 87G      -0.177000
     30 F31          4.5540    -8.7950     9.9480 f          1 87G      -0.164000
     31 S32         -3.4460    -4.7370    12.8400 s6         1 87G       1.203100
     32 H4           1.4070   -10.9680    13.5430 ha         1 87G       0.136000
     33 H5          -1.8650    -6.4530    11.0230 ha         1 87G       0.155000
     34 H6           4.5780   -11.3210    10.6410 ha         1 87G       0.152000
     35 H7          -1.9150    -8.8660    10.7950 h4         1 87G       0.154000
     36 H17          2.3630    -6.9080     8.7600 ha         1 87G       0.213000
     37 H8          -2.6580    -6.8760    15.8500 hc         1 87G       0.048367
     38 H9          -1.6060    -5.6580    15.1060 hc         1 87G       0.048367
     39 H10         -3.1580    -5.1730    15.8300 hc         1 87G       0.048367
     40 H11         -2.2860   -10.8240     7.8790 h1         1 87G       0.064700
     41 H12         -1.3050   -11.8900     8.9300 h1         1 87G       0.064700
     42 H13         -2.6410   -10.9290     9.6290 h1         1 87G       0.064700
     43 H14         -2.8390    -6.9640    13.3180 h1         1 87G       0.101700
     44 H15         -4.3980    -6.5080    14.0540 h1         1 87G       0.101700
     45 H1           0.6170    -3.7070    13.2310 ha         1 87G       0.121000
     46 H2           2.6250    -5.0120    12.5890 ha         1 87G       0.136000
     47 H3           1.2010    -8.5410    13.0450 ha         1 87G       0.128000
     48 H18          3.3640    -8.0570     6.6900 h4         1 87G       0.203000
     49 H24          2.3420   -10.0030     5.8870 hn         1 87G       0.327500
     50 H25         -1.7140    -3.5270    13.2970 hn         1 87G       0.493000
     51 N25         -1.8700    -4.2600    12.6180 nu         1 87G      -0.875100
@<TRIPOS>BOND
     1     1    15 ar  
     2     1    19 ar  
     3     1    32 1   
     4     2     5 ar  
     5     2    17 ar  
     6     2    33 1   
     7     3     8 ar  
     8     3    19 ar  
     9     3    34 1   
    10     4    16 2   
    11     4    23 1   
    12     4    35 1   
    13     5    16 1   
    14     5    18 ar  
    15     6     9 1   
    16     6    16 1   
    17     6    20 2   
    18     7     8 ar  
    19     7    15 ar  
    20     7    28 1   
    21     8    30 1   
    22     9    21 2   
    23     9    36 1   
    24    10    12 1   
    25    10    37 1   
    26    10    38 1   
    27    10    39 1   
    28    11    23 1   
    29    11    40 1   
    30    11    41 1   
    31    11    42 1   
    32    12    31 1   
    33    12    43 1   
    34    12    44 1   
    35    13    14 ar  
    36    13    17 ar  
    37    13    45 1   
    38    14    18 ar  
    39    14    46 1   
    40    15    47 1   
    41    17    51 1   
    42    18    28 1   
    43    19    29 1   
    44    20    22 1   
    45    20    23 1   
    46    21    24 1   
    47    21    48 1   
    48    22    24 1   
    49    22    25 2   
    50    24    49 1   
    51    26    31 2   
    52    27    31 2   
    53    31    51 1   
    54    50    51 1   
@<TRIPOS>SUBSTRUCTURE
     1 87G         1 TEMP              0 ****  ****    0 ROOT
