@<TRIPOS>MOLECULE
87H
   37    39     1     0     0
SMALL
No Charge or Current Charge


@<TRIPOS>ATOM
      1 C2         -20.2440    -1.3990    14.1860 c3         1 87H      -0.091400
      2 C4         -18.9510    -1.8180    16.3400 ca         1 87H      -0.152000
      3 C5         -18.6350    -1.5110    17.6730 ca         1 87H       0.171000
      4 C7         -19.2640    -0.4400    18.3250 ca         1 87H      -0.145000
      5 C8         -17.8910    -0.2400    11.3560 ca         1 87H      -0.079000
      6 C10        -17.6300     1.0700     9.3320 ca         1 87H      -0.093000
      7 C11        -16.2350     0.9780     9.5090 ca         1 87H       0.362900
      8 C14        -19.8840     0.4990    10.0590 ca         1 87H      -0.088000
      9 C16        -19.5540     1.8330     8.0470 ca         1 87H      -0.107000
     10 C17        -18.1640     1.7680     8.2310 ca         1 87H      -0.084000
     11 C1         -19.9100    -1.0550    15.6420 ca         1 87H      -0.051300
     12 C13        -16.4820    -0.2920    11.4260 ca         1 87H       0.315900
     13 C15        -20.4120     1.1940     8.9570 ca         1 87H      -0.093000
     14 C19        -20.2160     0.3300    17.6370 ca         1 87H      -0.084000
     15 C20        -20.5370     0.0240    16.3020 ca         1 87H      -0.096000
     16 C21        -21.7650    -1.5540    13.9380 c3         1 87H      -0.082100
     17 C3         -19.6150    -0.3710    13.2190 c          1 87H       0.602100
     18 C9         -18.4870     0.4440    10.2660 ca         1 87H      -0.001000
     19 F22        -17.7170    -2.2510    18.3320 f          1 87H      -0.180000
     20 N12        -15.6620     0.3030    10.5310 nb         1 87H      -0.655000
     21 N6         -18.6390    -0.8850    12.3770 ns         1 87H      -0.171000
     22 O18        -19.9370     0.8120    13.2120 o          1 87H      -0.566100
     23 H1         -19.8000    -2.3760    13.9560 hc         1 87H       0.055700
     24 H2         -18.4500    -2.6520    15.8560 ha         1 87H       0.124000
     25 H3         -19.0120    -0.2090    19.3560 ha         1 87H       0.133000
     26 H4         -15.5520     1.4490     8.8030 h4         1 87H       0.021100
     27 H5         -20.5730     0.0000    10.7340 ha         1 87H       0.121000
     28 H6         -19.9660     2.3700     7.1960 ha         1 87H       0.117000
     29 H7         -17.5030     2.2540     7.5150 ha         1 87H       0.118000
     30 H8         -15.9920    -0.8200    12.2430 h4         1 87H       0.021100
     31 H9         -21.4890     1.2350     8.8070 ha         1 87H       0.115000
     32 H10        -20.7050     1.1650    18.1360 ha         1 87H       0.119000
     33 H11        -21.2690     0.6370    15.7820 ha         1 87H       0.126000
     34 H12        -22.1950    -2.2890    14.6300 hc         1 87H       0.046700
     35 H13        -22.2950    -0.6040    14.0740 hc         1 87H       0.046700
     36 H14        -21.9540    -1.9010    12.9150 hc         1 87H       0.046700
     37 H15        -18.4120    -1.8610    12.5230 hn         1 87H       0.157000
@<TRIPOS>BOND
     1     1    11 1   
     2     1    16 1   
     3     1    17 1   
     4     1    23 1   
     5     2     3 ar  
     6     2    11 ar  
     7     2    24 1   
     8     3     4 ar  
     9     3    19 1   
    10     4    14 ar  
    11     4    25 1   
    12     5    12 ar  
    13     5    18 ar  
    14     5    21 1   
    15     6     7 ar  
    16     6    10 ar  
    17     6    18 ar  
    18     7    20 ar  
    19     7    26 1   
    20     8    13 ar  
    21     8    18 ar  
    22     8    27 1   
    23     9    10 ar  
    24     9    13 ar  
    25     9    28 1   
    26    10    29 1   
    27    11    15 ar  
    28    12    20 ar  
    29    12    30 1   
    30    13    31 1   
    31    14    15 ar  
    32    14    32 1   
    33    15    33 1   
    34    16    34 1   
    35    16    35 1   
    36    16    36 1   
    37    17    21 1   
    38    17    22 2   
    39    21    37 1   
@<TRIPOS>SUBSTRUCTURE
     1 87H         1 TEMP              0 ****  ****    0 ROOT
