@<TRIPOS>MOLECULE
87H
   37    39     1     0     0
SMALL
abcg2


@<TRIPOS>ATOM
      1 C2         -20.2180    -1.4130    14.1780 c3         1 87H      -0.091400
      2 C4         -18.8720    -1.7240    16.2630 ca         1 87H      -0.152000
      3 C5         -18.5530    -1.3810    17.5630 ca         1 87H       0.171000
      4 C7         -19.2240    -0.3910    18.2530 ca         1 87H      -0.145000
      5 C8         -17.9360    -0.3390    11.3760 ca         1 87H      -0.079000
      6 C10        -17.6750     1.0630     9.4290 ca         1 87H      -0.093000
      7 C11        -16.2840     0.9950     9.6690 ca         1 87H       0.362900
      8 C14        -19.9310     0.3860    10.0490 ca         1 87H      -0.088000
      9 C16        -19.5580     1.8150     8.1310 ca         1 87H      -0.107000
     10 C17        -18.2080     1.7930     8.3440 ca         1 87H      -0.084000
     11 C1         -19.9050    -1.0530    15.6120 ca         1 87H      -0.051300
     12 C13        -16.5730    -0.3250    11.4980 ca         1 87H       0.315900
     13 C15        -20.4200     1.0980     8.9880 ca         1 87H      -0.093000
     14 C19        -20.2530     0.2720    17.5980 ca         1 87H      -0.084000
     15 C20        -20.5910    -0.0500    16.2920 ca         1 87H      -0.096000
     16 C21        -21.7080    -1.3690    13.8340 c3         1 87H      -0.082100
     17 C3         -19.4690    -0.4620    13.2500 c          1 87H       0.602100
     18 C9         -18.5410     0.3610    10.3010 ca         1 87H      -0.001000
     19 F22        -17.5540    -2.0370    18.1760 f          1 87H      -0.180000
     20 N12        -15.7480     0.3260    10.6530 nb         1 87H      -0.655000
     21 N6         -18.7150    -1.0660    12.3010 ns         1 87H      -0.171000
     22 O18        -19.5700     0.7470    13.3380 o          1 87H      -0.566100
     23 H1         -19.8660    -2.4330    14.0080 hc         1 87H       0.055700
     24 H2         -18.3210    -2.5100    15.7610 ha         1 87H       0.124000
     25 H3         -18.9540    -0.1470    19.2720 ha         1 87H       0.133000
     26 H4         -15.6100     1.5240     9.0020 h4         1 87H       0.021100
     27 H5         -20.6070    -0.1690    10.6850 ha         1 87H       0.121000
     28 H6         -19.9710     2.3740     7.3020 ha         1 87H       0.117000
     29 H7         -17.5340     2.3310     7.6880 ha         1 87H       0.118000
     30 H8         -16.1030    -0.8620    12.3150 h4         1 87H       0.021100
     31 H9         -21.4860     1.1120     8.7980 ha         1 87H       0.115000
     32 H10        -20.7950     1.0510    18.1170 ha         1 87H       0.119000
     33 H11        -21.3990     0.4850    15.8120 ha         1 87H       0.126000
     34 H12        -22.2690    -2.0230    14.5000 hc         1 87H       0.046700
     35 H13        -22.1170    -0.3640    13.9150 hc         1 87H       0.046700
     36 H14        -21.8690    -1.7120    12.8120 hc         1 87H       0.046700
     37 H15        -18.5910    -2.0670    12.3400 hn         1 87H       0.157000
@<TRIPOS>BOND
     1     1    11 1   
     2     1    16 1   
     3     1    17 1   
     4     1    23 1   
     5     2     3 ar  
     6     2    11 ar  
     7     2    24 1   
     8     3     4 ar  
     9     3    19 1   
    10     4    14 ar  
    11     4    25 1   
    12     5    12 ar  
    13     5    18 ar  
    14     5    21 1   
    15     6     7 ar  
    16     6    10 ar  
    17     6    18 ar  
    18     7    20 ar  
    19     7    26 1   
    20     8    13 ar  
    21     8    18 ar  
    22     8    27 1   
    23     9    10 ar  
    24     9    13 ar  
    25     9    28 1   
    26    10    29 1   
    27    11    15 ar  
    28    12    20 ar  
    29    12    30 1   
    30    13    31 1   
    31    14    15 ar  
    32    14    32 1   
    33    15    33 1   
    34    16    34 1   
    35    16    35 1   
    36    16    36 1   
    37    17    21 1   
    38    17    22 2   
    39    21    37 1   
@<TRIPOS>SUBSTRUCTURE
     1 87H         1 TEMP              0 ****  ****    0 ROOT
