@<TRIPOS>MOLECULE
87I
   20    20     1     0     0
SMALL
No Charge or Current Charge


@<TRIPOS>ATOM
      1 C10         36.5380    48.4590    23.0620 c          1 87I       0.727000
      2 C05         37.1480    47.2670    23.9200 c5         1 87I       0.040500
      3 C06         37.7150    46.1450    23.0060 c5         1 87I      -0.056400
      4 C07         38.4370    45.2290    24.0390 c5         1 87I       0.157300
      5 C08         38.8080    46.2190    25.2070 c5         1 87I       0.122800
      6 N04         38.3760    47.5560    24.7260 n3         1 87I      -0.667600
      7 O01         39.5730    44.5710    23.4680 oh         1 87I      -0.642000
      8 O02         37.0500    48.7840    21.9960 o          1 87I      -0.724500
      9 O03         35.5260    49.0150    23.4720 o          1 87I      -0.724500
     10 H051        36.3500    46.8700    24.5640 h1         1 87I       0.003700
     11 H062        36.9310    45.6140    22.4560 hc         1 87I       0.053700
     12 H061        38.4220    46.5420    22.2680 hc         1 87I       0.053700
     13 H071        37.7340    44.4750    24.4200 h1         1 87I       0.003700
     14 H082        38.2630    45.9400    26.1200 h1         1 87I       0.009700
     15 H081        39.8810    46.2090    25.4430 h1         1 87I       0.009700
     16 H092        39.1950    48.7270    26.3000 h1         1 87I       0.016367
     17 H091        37.9610    49.5550    25.3240 h1         1 87I       0.016367
     18 H093        37.4740    48.3110    26.5010 h1         1 87I       0.016367
     19 H011        40.0100    44.0820    24.1980 ho         1 87I       0.413000
     20 C09         38.2430    48.5920    25.7690 c3         1 87I       0.171100
@<TRIPOS>BOND
     1     1     2 1   
     2     1     8 1   
     3     1     9 1   
     4     2     3 1   
     5     2     6 1   
     6     2    10 1   
     7     3     4 1   
     8     3    11 1   
     9     3    12 1   
    10     4     5 1   
    11     4     7 1   
    12     4    13 1   
    13     5     6 1   
    14     5    14 1   
    15     5    15 1   
    16     6    20 1   
    17     7    19 1   
    18    16    20 1   
    19    17    20 1   
    20    18    20 1   
@<TRIPOS>SUBSTRUCTURE
     1 87I         1 TEMP              0 ****  ****    0 ROOT
