@<TRIPOS>MOLECULE
87I
   20    20     1     0     0
SMALL
abcg2


@<TRIPOS>ATOM
      1 C10         36.8290    48.4650    22.9640 c          1 87I       0.727000
      2 C05         37.1690    47.3420    23.9630 c5         1 87I       0.040500
      3 C06         37.3620    45.9920    23.2450 c5         1 87I      -0.056400
      4 C07         38.4530    45.2580    24.0400 c5         1 87I       0.157300
      5 C08         38.6680    46.1740    25.2410 c5         1 87I       0.122800
      6 N04         38.3980    47.4960    24.7190 n3         1 87I      -0.667600
      7 O01         39.6040    45.1390    23.2270 oh         1 87I      -0.642000
      8 O02         37.7140    49.2860    22.6590 o          1 87I      -0.724500
      9 O03         35.6650    48.4120    22.5140 o          1 87I      -0.724500
     10 H051        36.3130    47.2380    24.6570 h1         1 87I       0.003700
     11 H062        36.4320    45.4270    23.2070 hc         1 87I       0.053700
     12 H061        37.6980    46.1270    22.2150 hc         1 87I       0.053700
     13 H071        38.1160    44.2690    24.3720 h1         1 87I       0.003700
     14 H082        37.9560    45.8930    26.0400 h1         1 87I       0.009700
     15 H081        39.6740    46.1000    25.6670 h1         1 87I       0.009700
     16 H092        39.2810    48.5590    26.2800 h1         1 87I       0.016367
     17 H091        38.1530    49.4850    25.2950 h1         1 87I       0.016367
     18 H093        37.5390    48.3180    26.4820 h1         1 87I       0.016367
     19 H011        40.2780    44.6730    23.7310 ho         1 87I       0.413000
     20 C09         38.3330    48.5080    25.7400 c3         1 87I       0.171100
@<TRIPOS>BOND
     1     1     2 1   
     2     1     8 1   
     3     1     9 1   
     4     2     3 1   
     5     2     6 1   
     6     2    10 1   
     7     3     4 1   
     8     3    11 1   
     9     3    12 1   
    10     4     5 1   
    11     4     7 1   
    12     4    13 1   
    13     5     6 1   
    14     5    14 1   
    15     5    15 1   
    16     6    20 1   
    17     7    19 1   
    18    16    20 1   
    19    17    20 1   
    20    18    20 1   
@<TRIPOS>SUBSTRUCTURE
     1 87I         1 TEMP              0 ****  ****    0 ROOT
