@<TRIPOS>MOLECULE
87J
   63    67     1     0     0
SMALL
No Charge or Current Charge


@<TRIPOS>ATOM
      1 C07         -5.2060    -1.1250    -0.2380 ca         1 87J      -0.102000
      2 C15         -4.8540     1.1140     0.6320 ca         1 87J      -0.102000
      3 C21          2.1280    -0.9350     0.9640 ca         1 87J      -0.066000
      4 C39          4.9500    -0.9060    -1.1440 ca         1 87J      -0.071000
      5 C20          1.0320    -1.5730     1.5640 ca         1 87J      -0.101000
      6 C08         -6.5480    -0.8130    -0.5110 ca         1 87J      -0.019500
      7 C14         -6.1950     1.4360     0.3620 ca         1 87J      -0.019500
      8 C38          6.1880    -1.4690    -0.7970 ca         1 87J      -0.113000
      9 C41          0.5980     0.4510    -0.3090 ca         1 87J      -0.044000
     10 C31          5.2210     0.6010     0.7260 ca         1 87J       0.353900
     11 C29          2.4070     2.9340     0.7090 cc         1 87J       0.257900
     12 C27          3.6030     4.4800    -0.1870 cd         1 87J       0.398400
     13 C18         -0.5070    -0.1900     0.3000 ca         1 87J      -0.119000
     14 C06         -4.3350    -0.1680     0.3340 cp         1 87J       0.028000
     15 C05         -2.9090    -0.5070     0.6250 cp         1 87J      -0.113000
     16 C22          1.9260     0.0890     0.0120 ca         1 87J      -0.143300
     17 C30          4.4470     0.1660    -0.3720 ca         1 87J      -0.140300
     18 C19         -0.2870    -1.2160     1.2450 ca         1 87J       0.333000
     19 C09         -7.0480     0.4720    -0.2150 ca         1 87J      -0.260500
     20 C16         -1.8400     0.1660    -0.0110 ca         1 87J       0.199000
     21 C33          6.9000    -0.9650     0.3090 ca         1 87J       0.237300
     22 C24          3.1060     2.3000    -0.2840 cd         1 87J      -0.223300
     23 C03         -2.5690    -1.5200     1.5490 ca         1 87J       0.625300
     24 C01         -3.3730    -3.2190     3.1330 c3         1 87J       0.155900
     25 C11         -9.6040     0.4140     0.9660 c3         1 87J      -0.336100
     26 C23          3.0930     0.8320    -0.6690 c3         1 87J       0.377900
     27 C34          8.2600    -1.5830     0.6920 c3         1 87J       0.268700
     28 N28          2.7070     4.2660     0.7680 nc         1 87J      -0.671000
     29 N32          6.4150     0.0570     1.0620 nb         1 87J      -0.627000
     30 N04         -1.3010    -1.8630     1.8520 nb         1 87J      -0.765000
     31 N25          3.8910     3.2990    -0.8560 na         1 87J      -0.145500
     32 O12         -8.9080     2.3330    -0.6780 o          1 87J      -0.522500
     33 O13         -9.2790    -0.0280    -1.5970 o          1 87J      -0.522500
     34 O40          2.8510     0.7660    -2.0720 oh         1 87J      -0.652000
     35 O02         -3.6110    -2.1680     2.1770 os         1 87J      -0.450300
     36 F35          8.8470    -0.9790     1.7550 f          1 87J      -0.104667
     37 F36          8.1370    -2.8930     1.0110 f          1 87J      -0.104667
     38 F37          9.1440    -1.5120    -0.3300 f          1 87J      -0.104667
     39 S10         -8.7750     0.8750    -0.5540 sy         1 87J       1.056500
     40 Cl17        -2.1820     1.4200    -1.2150 cl         1 87J      -0.157000
     41 H071        -4.8320    -2.1180    -0.4720 ha         1 87J       0.126000
     42 H151        -4.2070     1.8650     1.0810 ha         1 87J       0.126000
     43 H211         3.1260    -1.2520     1.2550 ha         1 87J       0.126000
     44 H391         4.4010    -1.3050    -1.9940 ha         1 87J       0.127000
     45 H201         1.2060    -2.3600     2.2920 ha         1 87J       0.138000
     46 H081        -7.1930    -1.5730    -0.9510 ha         1 87J       0.138500
     47 H141        -6.5640     2.4310     0.6050 ha         1 87J       0.138500
     48 H381         6.5950    -2.2920    -1.3790 ha         1 87J       0.145000
     49 H411         0.4430     1.2480    -1.0330 ha         1 87J       0.143000
     50 H311         4.8770     1.4060     1.3740 h4         1 87J       0.046100
     51 H291         1.6940     2.5100     1.4060 h4         1 87J       0.042100
     52 H271         4.0770     5.4220    -0.4390 h5         1 87J       0.056100
     53 H263         5.5380     2.3270    -1.7590 h1         1 87J       0.057033
     54 H262         4.3110     2.9610    -2.8970 h1         1 87J       0.057033
     55 H261         5.4340     4.0820    -2.0740 h1         1 87J       0.057033
     56 H011        -4.3240    -3.6090     3.5170 h1         1 87J       0.052033
     57 H012        -2.8270    -4.0530     2.6710 h1         1 87J       0.052033
     58 H013        -2.7880    -2.8500     3.9860 h1         1 87J       0.052033
     59 H401         2.5490    -0.1490    -2.2450 ho         1 87J       0.456000
     60 H3          -9.1770     1.0070     1.7820 h1         1 87J       0.102700
     61 H4         -10.6720     0.6270     0.8510 h1         1 87J       0.102700
     62 H5          -9.4380    -0.6540     1.1360 h1         1 87J       0.102700
     63 C26          4.8520     3.1580    -1.9630 c3         1 87J       0.060900
@<TRIPOS>BOND
     1     1     6 ar  
     2     1    14 ar  
     3     1    41 1   
     4     2     7 ar  
     5     2    14 ar  
     6     2    42 1   
     7     3     5 ar  
     8     3    16 ar  
     9     3    43 1   
    10     4     8 ar  
    11     4    17 ar  
    12     4    44 1   
    13     5    18 ar  
    14     5    45 1   
    15     6    19 ar  
    16     6    46 1   
    17     7    19 ar  
    18     7    47 1   
    19     8    21 ar  
    20     8    48 1   
    21     9    13 ar  
    22     9    16 ar  
    23     9    49 1   
    24    10    17 ar  
    25    10    29 ar  
    26    10    50 1   
    27    11    22 2   
    28    11    28 1   
    29    11    51 1   
    30    12    28 2   
    31    12    31 1   
    32    12    52 1   
    33    13    18 ar  
    34    13    20 ar  
    35    14    15 1   
    36    15    20 ar  
    37    15    23 ar  
    38    16    26 1   
    39    17    26 1   
    40    18    30 ar  
    41    19    39 1   
    42    20    40 1   
    43    21    27 1   
    44    21    29 ar  
    45    22    26 1   
    46    22    31 1   
    47    23    30 ar  
    48    23    35 1   
    49    24    35 1   
    50    24    56 1   
    51    24    57 1   
    52    24    58 1   
    53    25    39 1   
    54    25    60 1   
    55    25    61 1   
    56    25    62 1   
    57    26    34 1   
    58    27    36 1   
    59    27    37 1   
    60    27    38 1   
    61    31    63 1   
    62    32    39 2   
    63    33    39 2   
    64    34    59 1   
    65    53    63 1   
    66    54    63 1   
    67    55    63 1   
@<TRIPOS>SUBSTRUCTURE
     1 87J         1 TEMP              0 ****  ****    0 ROOT
