@<TRIPOS>MOLECULE
87J
   63    67     1     0     0
SMALL
bcc


@<TRIPOS>ATOM
      1 C07         -5.0970    -1.1260    -0.3660 ca         1 87J      -0.120000
      2 C15         -4.8820     1.0500     0.6400 ca         1 87J      -0.120000
      3 C21          2.0780    -0.7940     1.0430 ca         1 87J      -0.084000
      4 C39          4.8950    -0.7710    -1.3300 ca         1 87J      -0.089000
      5 C20          1.0100    -1.3860     1.6640 ca         1 87J      -0.184300
      6 C08         -6.4320    -0.8750    -0.6380 ca         1 87J      -0.037500
      7 C14         -6.2150     1.3120     0.3740 ca         1 87J      -0.037500
      8 C38          6.0970    -1.4050    -1.0450 ca         1 87J      -0.196300
      9 C41          0.6050     0.4650    -0.3690 ca         1 87J      -0.062000
     10 C31          5.1130     0.3970     0.7250 ca         1 87J       0.419200
     11 C29          2.4520     2.8790     0.8550 cc         1 87J       0.323200
     12 C27          3.7830     4.3330     0.0750 cd         1 87J       0.398400
     13 C18         -0.5050    -0.1260     0.2550 ca         1 87J      -0.184300
     14 C06         -4.3160    -0.1680     0.2730 cp         1 87J       0.028000
     15 C05         -2.8940    -0.4420     0.5700 cp         1 87J      -0.178300
     16 C22          1.8890     0.1470     0.0150 ca         1 87J      -0.143300
     17 C30          4.3750     0.1480    -0.4340 ca         1 87J      -0.205600
     18 C19         -0.3080    -1.0680     1.2910 ca         1 87J       0.463600
     19 C09         -6.9790     0.3410    -0.2590 ca         1 87J      -0.260500
     20 C16         -1.8600     0.1610    -0.0800 ca         1 87J       0.107400
     21 C33          6.7320    -1.0810     0.1380 ca         1 87J       0.302600
     22 C24          3.1150     2.2690    -0.1750 cd         1 87J      -0.237900
     23 C03         -2.5450    -1.3780     1.5980 ca         1 87J       0.690600
     24 C01         -3.3050    -2.8720     3.2540 c3         1 87J       0.132700
     25 C11         -9.4960     0.2140     0.9430 c3         1 87J      -0.225300
     26 C23          3.0460     0.8600    -0.6900 c3         1 87J       0.354700
     27 C34          8.0370    -1.7040     0.5510 c3         1 87J       0.632600
     28 N28          2.8760     4.1650     1.0030 nc         1 87J      -0.671000
     29 N32          6.2560    -0.2010     1.0060 nb         1 87J      -0.627000
     30 N04         -1.3330    -1.6740     1.9370 nb         1 87J      -0.765000
     31 N25          3.9760     3.2220    -0.6640 na         1 87J      -0.166900
     32 O12         -8.8600     2.1040    -0.7760 o          1 87J      -0.593300
     33 O13         -9.1490    -0.2460    -1.6270 o          1 87J      -0.593300
     34 O40          2.7940     0.9490    -2.0740 oh         1 87J      -0.589800
     35 O02         -3.5750    -1.9390     2.2130 os         1 87J      -0.427100
     36 F35          8.9890    -0.7780     0.7060 f          1 87J      -0.225967
     37 F36          7.9180    -2.3410     1.7210 f          1 87J      -0.225967
     38 F37          8.4820    -2.5900    -0.3420 f          1 87J      -0.225967
     39 S10         -8.6950     0.6650    -0.5790 sy         1 87J       1.087300
     40 CL17        -2.1930     1.2820    -1.3420 cl         1 87J      -0.065400
     41 H071        -4.6610    -2.0700    -0.6650 ha         1 87J       0.144000
     42 H151        -4.2810     1.7990     1.1390 ha         1 87J       0.144000
     43 H211         3.0730    -1.0720     1.3600 ha         1 87J       0.144000
     44 H391         4.3910    -1.0090    -2.2570 ha         1 87J       0.145000
     45 H201         1.1620    -2.1090     2.4540 ha         1 87J       0.156000
     46 H081        -7.0270    -1.6250    -1.1410 ha         1 87J       0.156500
     47 H141        -6.6440     2.2620     0.6620 ha         1 87J       0.156500
     48 H381         6.5090    -2.1220    -1.7400 ha         1 87J       0.163000
     49 H411         0.4460     1.1930    -1.1520 ha         1 87J       0.161000
     50 H311         4.7560     1.1110     1.4590 h4         1 87J       0.046100
     51 H291         1.7020     2.4480     1.5000 h4         1 87J       0.042100
     52 H271         4.3330     5.2430    -0.1160 h5         1 87J       0.056100
     53 H263         5.5230     2.2510    -1.6990 h1         1 87J       0.057033
     54 H262         4.3460     3.0830    -2.7270 h1         1 87J       0.057033
     55 H261         5.5210     4.0100    -1.7860 h1         1 87J       0.057033
     56 H011        -4.2760    -3.1970     3.6170 h1         1 87J       0.052033
     57 H012        -2.7470    -3.7330     2.8860 h1         1 87J       0.052033
     58 H013        -2.7470    -2.4120     4.0690 h1         1 87J       0.052033
     59 H401         2.4460     0.1080    -2.3950 ho         1 87J       0.417000
     60 H3          -9.1030     0.8220     1.7540 h1         1 87J       0.102700
     61 H4         -10.5620     0.4010     0.8180 h1         1 87J       0.102700
     62 H5          -9.3220    -0.8410     1.1420 h1         1 87J       0.102700
     63 C26          4.8870     3.1280    -1.7860 c3         1 87J       0.031600
@<TRIPOS>BOND
     1     1     6 ar  
     2     1    14 ar  
     3     1    41 1   
     4     2     7 ar  
     5     2    14 ar  
     6     2    42 1   
     7     3     5 ar  
     8     3    16 ar  
     9     3    43 1   
    10     4     8 ar  
    11     4    17 ar  
    12     4    44 1   
    13     5    18 ar  
    14     5    45 1   
    15     6    19 ar  
    16     6    46 1   
    17     7    19 ar  
    18     7    47 1   
    19     8    21 ar  
    20     8    48 1   
    21     9    13 ar  
    22     9    16 ar  
    23     9    49 1   
    24    10    17 ar  
    25    10    29 ar  
    26    10    50 1   
    27    11    22 2   
    28    11    28 1   
    29    11    51 1   
    30    12    28 2   
    31    12    31 1   
    32    12    52 1   
    33    13    18 ar  
    34    13    20 ar  
    35    14    15 1   
    36    15    20 ar  
    37    15    23 ar  
    38    16    26 1   
    39    17    26 1   
    40    18    30 ar  
    41    19    39 1   
    42    20    40 1   
    43    21    27 1   
    44    21    29 ar  
    45    22    26 1   
    46    22    31 1   
    47    23    30 ar  
    48    23    35 1   
    49    24    35 1   
    50    24    56 1   
    51    24    57 1   
    52    24    58 1   
    53    25    39 1   
    54    25    60 1   
    55    25    61 1   
    56    25    62 1   
    57    26    34 1   
    58    27    36 1   
    59    27    37 1   
    60    27    38 1   
    61    31    63 1   
    62    32    39 2   
    63    33    39 2   
    64    34    59 1   
    65    53    63 1   
    66    54    63 1   
    67    55    63 1   
@<TRIPOS>SUBSTRUCTURE
     1 87J         1 TEMP              0 ****  ****    0 ROOT
