@<TRIPOS>MOLECULE
87K
   64    63     1     0     0
SMALL
No Charge or Current Charge


@<TRIPOS>ATOM
      1 C6           8.6510   -21.3350    -5.5280 c3         1 87K      -0.074400
      2 C4           7.1350   -19.6220    -4.2830 c3         1 87K      -0.091400
      3 C3           7.0240   -18.6440    -3.0940 c3         1 87K      -0.063400
      4 C2           5.6930   -17.8550    -3.0740 c3         1 87K      -0.193400
      5 C1           5.6600   -16.8870    -1.8750 c          1 87K       0.723000
      6 O2           5.2110   -17.2950    -0.8150 o          1 87K      -0.741000
      7 O1           6.1110   -15.7610    -2.0300 o          1 87K      -0.741000
      8 C5           8.4620   -20.4180    -4.2920 c3         1 87K      -0.072400
      9 C7           7.5610   -22.4150    -5.7500 c3         1 87K      -0.089400
     10 C8           7.4140   -23.4170    -4.5820 c3         1 87K      -0.082400
     11 C9           6.3300   -24.4920    -4.8290 c3         1 87K      -0.099400
     12 C10          6.2040   -25.5750    -3.7230 c3         1 87K      -0.070400
     13 C11          5.8960   -25.0380    -2.3010 c3         1 87K      -0.076400
     14 C12          7.1540   -24.7730    -1.4370 c3         1 87K      -0.068400
     15 C13          6.8580   -23.9540    -0.1630 c3         1 87K      -0.100400
     16 C14          8.1400   -23.6260     0.6370 c3         1 87K      -0.081400
     17 C15          7.9200   -22.7250     1.8770 c3         1 87K      -0.087400
     18 C16          7.3020   -21.3270     1.6000 c3         1 87K      -0.068400
     19 C17          8.0010   -20.4750     0.5080 c3         1 87K      -0.090400
     20 C18          9.4920   -20.1620     0.7870 c3         1 87K      -0.077400
     21 C19         10.1840   -19.3400    -0.3270 c3         1 87K      -0.067400
     22 C20          9.7020   -17.8750    -0.4370 c3         1 87K      -0.110400
     23 C21         10.4390   -17.0830    -1.5340 c3         1 87K      -0.078100
     24 H1           9.6260   -21.8310    -5.4470 hc         1 87K       0.029200
     25 H2           8.7030   -20.7060    -6.4260 hc         1 87K       0.029200
     26 H3           7.0460   -19.0600    -5.2220 hc         1 87K       0.039200
     27 H4           6.2910   -20.3200    -4.2440 hc         1 87K       0.039200
     28 H5           7.1220   -19.2060    -2.1580 hc         1 87K       0.029200
     29 H6           5.6630   -17.2970    -4.0180 hc         1 87K       0.009700
     30 H8           8.5360   -21.0130    -3.3730 hc         1 87K       0.034200
     31 H9           9.2980   -19.7080    -4.2620 hc         1 87K       0.034200
     32 H10          6.5960   -21.9310    -5.9400 hc         1 87K       0.024200
     33 H11          8.3790   -23.9060    -4.4030 hc         1 87K       0.046200
     34 H12          5.3590   -23.9950    -4.9490 hc         1 87K       0.043200
     35 H13          6.5400   -24.9950    -5.7810 hc         1 87K       0.043200
     36 H14          5.3930   -26.2540    -4.0160 hc         1 87K       0.041200
     37 H15          7.1150   -26.1860    -3.6990 hc         1 87K       0.041200
     38 H16          5.2950   -24.1240    -2.3830 hc         1 87K       0.028700
     39 H17          5.2700   -25.7700    -1.7750 hc         1 87K       0.028700
     40 H18          7.6030   -25.7340    -1.1560 hc         1 87K       0.049200
     41 H19          7.9100   -24.2420    -2.0230 hc         1 87K       0.049200
     42 H20          6.3610   -23.0220    -0.4580 hc         1 87K       0.050200
     43 H21          6.1560   -24.5050     0.4760 hc         1 87K       0.050200
     44 H22          8.5960   -24.5670     0.9690 hc         1 87K       0.030700
     45 H23          8.8720   -23.1520    -0.0280 hc         1 87K       0.030700
     46 H24          7.2740   -23.2550     2.5880 hc         1 87K       0.029700
     47 H25          8.8820   -22.5930     2.3860 hc         1 87K       0.029700
     48 H26          7.2970   -20.7590     2.5390 hc         1 87K       0.047700
     49 H27          6.2490   -21.4520     1.3210 hc         1 87K       0.047700
     50 H28          7.4470   -19.5340     0.4150 hc         1 87K       0.045200
     51 H29          7.9110   -20.9800    -0.4610 hc         1 87K       0.045200
     52 H30         10.0420   -21.1040     0.8970 hc         1 87K       0.040700
     53 H31          9.5840   -19.6320     1.7430 hc         1 87K       0.040700
     54 H32         10.0410   -19.8460    -1.2900 hc         1 87K       0.033700
     55 H33         11.2640   -19.3380    -0.1330 hc         1 87K       0.033700
     56 H34          9.8470   -17.3710     0.5260 hc         1 87K       0.063200
     57 H35          8.6270   -17.8490    -0.6490 hc         1 87K       0.063200
     58 H36         10.0550   -16.0580    -1.5890 hc         1 87K       0.024367
     59 H37         11.5140   -17.0370    -1.3230 hc         1 87K       0.024367
     60 H38         10.2990   -17.5550    -2.5140 hc         1 87K       0.024367
     61 H39          7.8600   -17.9350    -3.1330 hc         1 87K       0.029200
     62 H40          4.9000   -18.6080    -2.9820 hc         1 87K       0.009700
     63 H41          7.8090   -22.9720    -6.6620 hc         1 87K       0.024200
     64 H42          7.1520   -22.8590    -3.6760 hc         1 87K       0.046200
@<TRIPOS>BOND
     1     1     8 1   
     2     1     9 1   
     3     1    24 1   
     4     1    25 1   
     5     2     3 1   
     6     2     8 1   
     7     2    26 1   
     8     2    27 1   
     9     3     4 1   
    10     3    28 1   
    11     3    61 1   
    12     4     5 1   
    13     4    29 1   
    14     4    62 1   
    15     5     6 1   
    16     5     7 1   
    17     8    30 1   
    18     8    31 1   
    19     9    10 1   
    20     9    32 1   
    21     9    63 1   
    22    10    11 1   
    23    10    33 1   
    24    10    64 1   
    25    11    12 1   
    26    11    34 1   
    27    11    35 1   
    28    12    13 1   
    29    12    36 1   
    30    12    37 1   
    31    13    14 1   
    32    13    38 1   
    33    13    39 1   
    34    14    15 1   
    35    14    40 1   
    36    14    41 1   
    37    15    16 1   
    38    15    42 1   
    39    15    43 1   
    40    16    17 1   
    41    16    44 1   
    42    16    45 1   
    43    17    18 1   
    44    17    46 1   
    45    17    47 1   
    46    18    19 1   
    47    18    48 1   
    48    18    49 1   
    49    19    20 1   
    50    19    50 1   
    51    19    51 1   
    52    20    21 1   
    53    20    52 1   
    54    20    53 1   
    55    21    22 1   
    56    21    54 1   
    57    21    55 1   
    58    22    23 1   
    59    22    56 1   
    60    22    57 1   
    61    23    58 1   
    62    23    59 1   
    63    23    60 1   
@<TRIPOS>SUBSTRUCTURE
     1 87K         1 TEMP              0 ****  ****    0 ROOT
