@<TRIPOS>MOLECULE
87K
   64    63     1     0     0
SMALL
abcg2


@<TRIPOS>ATOM
      1 C6           8.0850   -20.7560    -6.0450 c3         1 87K      -0.074400
      2 C4           6.6260   -19.2810    -4.4920 c3         1 87K      -0.091400
      3 C3           6.7710   -18.3460    -3.2560 c3         1 87K      -0.063400
      4 C2           5.4680   -17.8860    -2.6540 c3         1 87K      -0.193400
      5 C1           5.5460   -16.7910    -1.5670 c          1 87K       0.723000
      6 O2           4.4950   -16.5780    -0.9280 o          1 87K      -0.741000
      7 O1           6.6540   -16.2500    -1.3750 o          1 87K      -0.741000
      8 C5           8.0130   -19.7100    -4.9340 c3         1 87K      -0.072400
      9 C7           7.2520   -22.0590    -5.8530 c3         1 87K      -0.089400
     10 C8           7.5620   -22.8670    -4.6100 c3         1 87K      -0.082400
     11 C9           6.5740   -24.0940    -4.4490 c3         1 87K      -0.099400
     12 C10          7.2690   -25.2380    -3.6230 c3         1 87K      -0.070400
     13 C11          6.7740   -25.1570    -2.1830 c3         1 87K      -0.076400
     14 C12          7.5740   -24.1730    -1.3510 c3         1 87K      -0.068400
     15 C13          6.7480   -23.5960    -0.1810 c3         1 87K      -0.100400
     16 C14          7.1880   -24.0940     1.2400 c3         1 87K      -0.081400
     17 C15          7.3590   -22.9540     2.3220 c3         1 87K      -0.087400
     18 C16          7.4470   -21.4910     1.8090 c3         1 87K      -0.068400
     19 C17          8.4510   -21.2650     0.6610 c3         1 87K      -0.090400
     20 C18          9.5150   -20.2070     0.9980 c3         1 87K      -0.077400
     21 C19         10.3810   -19.9200    -0.2160 c3         1 87K      -0.067400
     22 C20          9.7950   -18.8130    -1.1230 c3         1 87K      -0.110400
     23 C21         10.8340   -18.1070    -2.0100 c3         1 87K      -0.078100
     24 H1           9.1110   -21.1260    -6.1350 hc         1 87K       0.029200
     25 H2           7.7150   -20.3280    -6.9770 hc         1 87K       0.029200
     26 H3           6.1510   -18.6730    -5.2580 hc         1 87K       0.039200
     27 H4           6.0710   -20.1470    -4.1390 hc         1 87K       0.039200
     28 H5           7.3990   -18.8750    -2.5210 hc         1 87K       0.029200
     29 H6           4.8030   -17.5900    -3.4790 hc         1 87K       0.009700
     30 H8           8.6550   -20.0000    -4.1010 hc         1 87K       0.034200
     31 H9           8.4880   -18.8460    -5.4270 hc         1 87K       0.034200
     32 H10          6.1800   -21.7980    -5.9260 hc         1 87K       0.024200
     33 H11          8.5690   -23.2680    -4.7090 hc         1 87K       0.046200
     34 H12          5.7320   -23.6580    -3.9070 hc         1 87K       0.043200
     35 H13          6.2900   -24.3540    -5.4650 hc         1 87K       0.043200
     36 H14          7.0320   -26.1750    -4.1200 hc         1 87K       0.041200
     37 H15          8.3340   -25.0060    -3.6930 hc         1 87K       0.041200
     38 H16          5.6920   -24.9660    -2.1460 hc         1 87K       0.028700
     39 H17          6.7700   -26.1690    -1.7370 hc         1 87K       0.028700
     40 H18          8.4420   -24.6880    -0.9270 hc         1 87K       0.049200
     41 H19          7.8110   -23.3270    -1.9830 hc         1 87K       0.049200
     42 H20          6.7980   -22.5190    -0.1610 hc         1 87K       0.050200
     43 H21          5.6940   -23.8660    -0.3060 hc         1 87K       0.050200
     44 H22          6.4390   -24.7950     1.6030 hc         1 87K       0.030700
     45 H23          8.1560   -24.5620     1.1050 hc         1 87K       0.030700
     46 H24          6.5930   -23.1070     3.0830 hc         1 87K       0.029700
     47 H25          8.3580   -23.1520     2.7380 hc         1 87K       0.029700
     48 H26          7.7530   -20.8980     2.6670 hc         1 87K       0.047700
     49 H27          6.4230   -21.2730     1.4790 hc         1 87K       0.047700
     50 H28          7.8910   -20.8600    -0.1950 hc         1 87K       0.045200
     51 H29          8.9400   -22.1850     0.3390 hc         1 87K       0.045200
     52 H30         10.1150   -20.6480     1.8090 hc         1 87K       0.040700
     53 H31          8.9690   -19.3430     1.3800 hc         1 87K       0.040700
     54 H32         10.5290   -20.8200    -0.8110 hc         1 87K       0.033700
     55 H33         11.3070   -19.4640     0.1460 hc         1 87K       0.033700
     56 H34          9.2220   -18.0610    -0.5660 hc         1 87K       0.063200
     57 H35          8.9910   -19.2150    -1.7640 hc         1 87K       0.063200
     58 H36         10.3490   -17.3920    -2.6790 hc         1 87K       0.024367
     59 H37         11.5860   -17.6030    -1.3990 hc         1 87K       0.024367
     60 H38         11.3660   -18.8410    -2.6170 hc         1 87K       0.024367
     61 H39          7.4170   -17.5170    -3.5740 hc         1 87K       0.029200
     62 H40          4.9600   -18.7820    -2.2560 hc         1 87K       0.009700
     63 H41          7.3900   -22.6340    -6.7790 hc         1 87K       0.024200
     64 H42          7.4570   -22.1900    -3.7500 hc         1 87K       0.046200
@<TRIPOS>BOND
     1     1     8 1   
     2     1     9 1   
     3     1    24 1   
     4     1    25 1   
     5     2     3 1   
     6     2     8 1   
     7     2    26 1   
     8     2    27 1   
     9     3     4 1   
    10     3    28 1   
    11     3    61 1   
    12     4     5 1   
    13     4    29 1   
    14     4    62 1   
    15     5     6 1   
    16     5     7 1   
    17     8    30 1   
    18     8    31 1   
    19     9    10 1   
    20     9    32 1   
    21     9    63 1   
    22    10    11 1   
    23    10    33 1   
    24    10    64 1   
    25    11    12 1   
    26    11    34 1   
    27    11    35 1   
    28    12    13 1   
    29    12    36 1   
    30    12    37 1   
    31    13    14 1   
    32    13    38 1   
    33    13    39 1   
    34    14    15 1   
    35    14    40 1   
    36    14    41 1   
    37    15    16 1   
    38    15    42 1   
    39    15    43 1   
    40    16    17 1   
    41    16    44 1   
    42    16    45 1   
    43    17    18 1   
    44    17    46 1   
    45    17    47 1   
    46    18    19 1   
    47    18    48 1   
    48    18    49 1   
    49    19    20 1   
    50    19    50 1   
    51    19    51 1   
    52    20    21 1   
    53    20    52 1   
    54    20    53 1   
    55    21    22 1   
    56    21    54 1   
    57    21    55 1   
    58    22    23 1   
    59    22    56 1   
    60    22    57 1   
    61    23    58 1   
    62    23    59 1   
    63    23    60 1   
@<TRIPOS>SUBSTRUCTURE
     1 87K         1 TEMP              0 ****  ****    0 ROOT
