@<TRIPOS>MOLECULE
87L
   25    26     1     0     0
SMALL
bcc


@<TRIPOS>ATOM
      1 CAH         -1.4460    -0.2210     1.0400 ca         1 87L      -0.107000
      2 CAD         -2.6830    -0.8120     1.2440 ca         1 87L      -0.143500
      3 CAC         -3.5010    -1.1200     0.1620 ca         1 87L      -0.150000
      4 CAE         -3.0690    -0.8330    -1.1240 ca         1 87L      -0.143500
      5 CAI         -1.8240    -0.2450    -1.3230 ca         1 87L      -0.107000
      6 CAM         -1.0000     0.0700    -0.2490 ca         1 87L      -0.024300
      7 CA           0.3640     0.6680    -0.4870 c3         1 87L      -0.080700
      8 C            0.5720     2.0370     0.2290 c          1 87L       0.934600
      9 O           -0.4580     2.7160     0.3590 o          1 87L      -0.804300
     10 OXT          1.7340     2.3390     0.5390 o          1 87L      -0.804300
     11 N            1.4100    -0.2990    -0.2110 na         1 87L       0.015900
     12 CAJ          1.9000    -1.1710    -1.1380 cc         1 87L      -0.152800
     13 CAF          2.7590    -2.0390    -0.5120 cd         1 87L      -0.238000
     14 CAG          2.7770    -1.6800     0.8600 cd         1 87L      -0.238000
     15 CAK          1.9340    -0.6070     1.0080 cc         1 87L      -0.152800
     16 H1          -0.8280     0.0180     1.8970 ha         1 87L       0.128500
     17 H2          -3.0150    -1.0280     2.2510 ha         1 87L       0.110500
     18 H3          -4.4670    -1.5810     0.3240 ha         1 87L       0.107000
     19 H4          -3.6950    -1.0670    -1.9750 ha         1 87L       0.110500
     20 H5          -1.4900    -0.0290    -2.3310 ha         1 87L       0.128500
     21 H6           0.4450     0.8900    -1.5570 h1         1 87L       0.051700
     22 H8           1.5970    -1.1060    -2.1710 h4         1 87L       0.156500
     23 H9           3.3160    -2.8320    -0.9870 ha         1 87L       0.122500
     24 H10          3.3560    -2.1400     1.6460 ha         1 87L       0.122500
     25 H11          1.6870    -0.0380     1.8890 h4         1 87L       0.156500
@<TRIPOS>BOND
     1     1     2 ar  
     2     1     6 ar  
     3     1    16 1   
     4     2     3 ar  
     5     2    17 1   
     6     3     4 ar  
     7     3    18 1   
     8     4     5 ar  
     9     4    19 1   
    10     5     6 ar  
    11     5    20 1   
    12     6     7 1   
    13     7     8 1   
    14     7    11 1   
    15     7    21 1   
    16     8     9 1   
    17     8    10 1   
    18    11    12 1   
    19    11    15 1   
    20    12    13 2   
    21    12    22 1   
    22    13    14 1   
    23    13    23 1   
    24    14    15 2   
    25    14    24 1   
    26    15    25 1   
@<TRIPOS>SUBSTRUCTURE
     1 87L         1 TEMP              0 ****  ****    0 ROOT
