@<TRIPOS>MOLECULE
87L
   25    26     1     0     0
SMALL
No Charge or Current Charge


@<TRIPOS>ATOM
      1 CAH         -1.3600    -0.8540     0.7670 ca         1 87L      -0.089000
      2 CAD         -2.6740    -1.3100     0.9710 ca         1 87L      -0.125500
      3 CAC         -3.6870    -0.9730     0.0590 ca         1 87L      -0.132000
      4 CAE         -3.3850    -0.1790    -1.0580 ca         1 87L      -0.125500
      5 CAI         -2.0720     0.2780    -1.2640 ca         1 87L      -0.089000
      6 CAM         -1.0460    -0.0560    -0.3570 ca         1 87L      -0.024300
      7 CA           0.3760     0.4580    -0.6170 c3         1 87L      -0.051400
      8 C            0.5600     1.9210    -0.1550 c          1 87L       0.724000
      9 O            0.0940     2.2690     0.9230 o          1 87L      -0.699000
     10 OXT          1.1560     2.6850    -0.9030 o          1 87L      -0.699000
     11 N            1.4500    -0.4220    -0.1160 na         1 87L       0.088000
     12 CAJ          2.0080    -1.4740    -0.8480 cc         1 87L      -0.185500
     13 CAF          2.9560    -2.0410    -0.0420 cd         1 87L      -0.220000
     14 CAG          2.9840    -1.3510     1.1810 cd         1 87L      -0.220000
     15 CAK          2.0550    -0.3490     1.1450 cc         1 87L      -0.185500
     16 H1          -0.5920    -1.1210     1.4880 ha         1 87L       0.110500
     17 H2          -2.9060    -1.9230     1.8390 ha         1 87L       0.092500
     18 H3          -4.7030    -1.3270     0.2190 ha         1 87L       0.089000
     19 H4          -4.1690     0.0840    -1.7650 ha         1 87L       0.092500
     20 H5          -1.8510     0.8930    -2.1330 ha         1 87L       0.110500
     21 H6           0.5000     0.4820    -1.7070 h1         1 87L       0.051700
     22 H8           1.6880    -1.7200    -1.8530 h4         1 87L       0.138500
     23 H9           3.5810    -2.8890    -0.3070 ha         1 87L       0.104500
     24 H10          3.6340    -1.5760     2.0220 ha         1 87L       0.104500
     25 H11          1.7770     0.3860     1.8910 h4         1 87L       0.138500
@<TRIPOS>BOND
     1     1     2 ar  
     2     1     6 ar  
     3     1    16 1   
     4     2     3 ar  
     5     2    17 1   
     6     3     4 ar  
     7     3    18 1   
     8     4     5 ar  
     9     4    19 1   
    10     5     6 ar  
    11     5    20 1   
    12     6     7 1   
    13     7     8 1   
    14     7    11 1   
    15     7    21 1   
    16     8     9 1   
    17     8    10 1   
    18    11    12 1   
    19    11    15 1   
    20    12    13 2   
    21    12    22 1   
    22    13    14 1   
    23    13    23 1   
    24    14    15 2   
    25    14    24 1   
    26    15    25 1   
@<TRIPOS>SUBSTRUCTURE
     1 87L         1 TEMP              0 ****  ****    0 ROOT
