@<TRIPOS>MOLECULE
87M
   50    53     1     0     0
SMALL
abcg2


@<TRIPOS>ATOM
      1 C4          20.5160    -7.0890    21.8760 ca         1 87M      -0.131000
      2 C5          16.2950    -6.3360    23.6250 ca         1 87M      -0.150000
      3 C6          15.5370    -8.3410    24.7440 ca         1 87M      -0.150000
      4 C7          19.6680    -7.5950    22.8480 ca         1 87M      -0.086000
      5 C8          18.7570    -7.3050    20.2450 ca         1 87M      -0.136000
      6 C10         15.6730    -9.1880    21.1970 cc         1 87M      -0.158900
      7 C13         16.4700    -7.6750    23.9550 ca         1 87M       0.129100
      8 C15         16.5100    -8.1320    20.8610 cd         1 87M      -0.114000
      9 C17         15.8490   -10.3770    21.9610 cc         1 87M       0.409800
     10 C20         20.7780    -3.2490    20.3270 c3         1 87M      -0.066100
     11 C21         19.8020    -3.9200    19.3740 c3         1 87M      -0.348400
     12 C1          14.2200    -6.3210    24.8670 ca         1 87M      -0.133000
     13 C2          15.1640    -5.6670    24.0840 ca         1 87M      -0.078500
     14 C3          14.4150    -7.6600    25.1980 ca         1 87M      -0.078500
     15 C9          17.8860    -7.8030    21.2190 ca         1 87M      -0.003000
     16 C11         14.4050    -8.9480    20.5720 cc         1 87M      -0.223600
     17 C12         20.0570    -6.9310    20.5690 ca         1 87M       0.267000
     18 C14         18.3620    -7.9320    22.5320 ca         1 87M       0.105100
     19 C16         14.4910    -7.7560    19.8650 cd         1 87M      -0.060300
     20 C18         13.3270    -9.8840    20.7560 c          1 87M       0.592600
     21 C19         13.5020    -7.0250    19.0300 c3         1 87M      -0.038800
     22 N22         14.8900   -11.2310    22.1310 nd         1 87M      -0.429300
     23 N23         15.7630    -7.3040    20.0510 na         1 87M      -0.088000
     24 N24         13.6870   -10.9570    21.5500 ns         1 87M      -0.265900
     25 N25         20.9520    -6.4250    19.5910 nu         1 87M      -0.882100
     26 O26         12.1830    -9.8100    20.2950 o          1 87M      -0.567000
     27 O27         21.7710    -4.8730    17.8690 o          1 87M      -0.529000
     28 O28         19.4890    -5.8410    17.6290 o          1 87M      -0.529000
     29 O29         17.5590    -8.4180    23.5480 os         1 87M      -0.257200
     30 S30         20.5220    -5.2820    18.4690 s6         1 87M       1.209100
     31 H1          21.5290    -6.8020    22.1310 ha         1 87M       0.124000
     32 H2          17.0230    -5.8210    23.0140 ha         1 87M       0.123500
     33 H3          15.6950    -9.3850    24.9820 ha         1 87M       0.123500
     34 H4          20.0040    -7.7020    23.8710 ha         1 87M       0.139000
     35 H5          18.4160    -7.2270    19.2230 ha         1 87M       0.152000
     36 H6          16.7900   -10.6180    22.4360 h4         1 87M       0.049800
     37 H7          20.2700    -2.4230    20.8270 hc         1 87M       0.050033
     38 H8          21.1300    -3.9420    21.0920 hc         1 87M       0.050033
     39 H9          21.6380    -2.8500    19.7910 hc         1 87M       0.050033
     40 H10         18.9330    -4.3360    19.8860 h1         1 87M       0.100200
     41 H11         19.4470    -3.2430    18.5950 h1         1 87M       0.100200
     42 H12         13.3410    -5.7950    25.2180 ha         1 87M       0.118000
     43 H13         15.0260    -4.6250    23.8230 ha         1 87M       0.115500
     44 H14         13.6880    -8.1820    25.8070 ha         1 87M       0.115500
     45 H15         13.5890    -7.3120    17.9780 hc         1 87M       0.063033
     46 H16         12.4920    -7.2590    19.3570 hc         1 87M       0.063033
     47 H17         13.6590    -5.9480    19.0970 hc         1 87M       0.063033
     48 H18         16.1000    -6.4250    19.6860 hn         1 87M       0.350000
     49 H19         12.9800   -11.6580    21.7180 hn         1 87M       0.344500
     50 H20         21.8910    -6.2510    19.9330 hn         1 87M       0.498000
@<TRIPOS>BOND
     1     1     4 ar  
     2     1    17 ar  
     3     1    31 1   
     4     2     7 ar  
     5     2    13 ar  
     6     2    32 1   
     7     3     7 ar  
     8     3    14 ar  
     9     3    33 1   
    10     4    18 ar  
    11     4    34 1   
    12     5    15 ar  
    13     5    17 ar  
    14     5    35 1   
    15     6     8 2   
    16     6     9 1   
    17     6    16 1   
    18     7    29 1   
    19     8    15 1   
    20     8    23 1   
    21     9    22 2   
    22     9    36 1   
    23    10    11 1   
    24    10    37 1   
    25    10    38 1   
    26    10    39 1   
    27    11    30 1   
    28    11    40 1   
    29    11    41 1   
    30    12    13 ar  
    31    12    14 ar  
    32    12    42 1   
    33    13    43 1   
    34    14    44 1   
    35    15    18 ar  
    36    16    19 2   
    37    16    20 1   
    38    17    25 1   
    39    18    29 1   
    40    19    21 1   
    41    19    23 1   
    42    20    24 1   
    43    20    26 2   
    44    21    45 1   
    45    21    46 1   
    46    21    47 1   
    47    22    24 1   
    48    23    48 1   
    49    24    49 1   
    50    25    30 1   
    51    25    50 1   
    52    27    30 2   
    53    28    30 2   
@<TRIPOS>SUBSTRUCTURE
     1 87M         1 TEMP              0 ****  ****    0 ROOT
