@<TRIPOS>MOLECULE
87M
   50    53     1     0     0
SMALL
No Charge or Current Charge


@<TRIPOS>ATOM
      1 C4          20.6080    -7.2360    21.8860 ca         1 87M      -0.131000
      2 C5          16.4060    -6.3800    23.6950 ca         1 87M      -0.150000
      3 C6          15.5290    -8.3980    24.7400 ca         1 87M      -0.150000
      4 C7          19.7460    -7.8090    22.8340 ca         1 87M      -0.086000
      5 C8          18.8060    -7.2120    20.2670 ca         1 87M      -0.136000
      6 C10         15.6640    -9.1010    21.1370 cc         1 87M      -0.158900
      7 C13         16.5180    -7.7590    23.9720 ca         1 87M       0.129100
      8 C15         16.5510    -8.1300    20.7390 cd         1 87M      -0.114000
      9 C17         15.8790   -10.2670    21.9570 cc         1 87M       0.409800
     10 C20         20.4050    -3.2270    20.3980 c3         1 87M      -0.066100
     11 C21         19.7250    -3.9480    19.2070 c3         1 87M      -0.348400
     12 C1          14.3060    -6.3030    24.9260 ca         1 87M      -0.133000
     13 C2          15.2980    -5.6550    24.1690 ca         1 87M      -0.078500
     14 C3          14.4220    -7.6730    25.2140 ca         1 87M      -0.078500
     15 C9          17.9310    -7.8270    21.1890 ca         1 87M      -0.003000
     16 C11         14.4110    -8.8750    20.5580 cc         1 87M      -0.223600
     17 C12         20.1400    -6.9150    20.6040 ca         1 87M       0.267000
     18 C14         18.4110    -8.0880    22.5010 ca         1 87M       0.105100
     19 C16         14.4730    -7.7550    19.7780 cd         1 87M      -0.060300
     20 C18         13.2750    -9.7880    20.8210 c          1 87M       0.592600
     21 C19         13.4070    -7.0850    18.9510 c3         1 87M      -0.038800
     22 N22         14.8870   -11.1270    22.2220 nd         1 87M      -0.429300
     23 N23         15.7980    -7.2990    19.8820 na         1 87M      -0.088000
     24 N24         13.6430   -10.8430    21.6550 ns         1 87M      -0.265900
     25 N25         21.0290    -6.3210    19.7100 nu         1 87M      -0.882100
     26 O26         12.1440    -9.6640    20.3720 o          1 87M      -0.567000
     27 O27         22.0270    -4.7200    18.1060 o          1 87M      -0.529000
     28 O28         19.9140    -5.9890    17.4880 o          1 87M      -0.529000
     29 O29         17.5830    -8.5100    23.5170 os         1 87M      -0.257200
     30 S30         20.7170    -5.2600    18.4720 s6         1 87M       1.209100
     31 H1          21.6370    -7.0190    22.1630 ha         1 87M       0.124000
     32 H2          17.1660    -5.8640    23.1150 ha         1 87M       0.123500
     33 H3          15.6180    -9.4580    24.9610 ha         1 87M       0.123500
     34 H4          20.1030    -8.0100    23.8410 ha         1 87M       0.139000
     35 H5          18.4500    -7.0090    19.2640 ha         1 87M       0.152000
     36 H6          16.8350   -10.5380    22.3800 h4         1 87M       0.049800
     37 H7          19.7560    -2.4280    20.7780 hc         1 87M       0.050033
     38 H8          20.6000    -3.9220    21.2240 hc         1 87M       0.050033
     39 H9          21.3560    -2.7730    20.0940 hc         1 87M       0.050033
     40 H10         18.7860    -4.4130    19.5240 h1         1 87M       0.100200
     41 H11         19.5190    -3.2400    18.3960 h1         1 87M       0.100200
     42 H12         13.4490    -5.7410    25.2920 ha         1 87M       0.118000
     43 H13         15.2090    -4.5930    23.9510 ha         1 87M       0.115500
     44 H14         13.6550    -8.1730    25.8020 ha         1 87M       0.115500
     45 H15         13.0190    -7.7670    18.1860 hc         1 87M       0.063033
     46 H16         12.5640    -6.7710    19.5790 hc         1 87M       0.063033
     47 H17         13.7920    -6.1940    18.4410 hc         1 87M       0.063033
     48 H18         16.1500    -6.4610    19.4340 hn         1 87M       0.350000
     49 H19         12.8820   -11.4880    21.8520 hn         1 87M       0.344500
     50 H20         21.9390    -6.0540    20.0600 hn         1 87M       0.498000
@<TRIPOS>BOND
     1     1     4 ar  
     2     1    17 ar  
     3     1    31 1   
     4     2     7 ar  
     5     2    13 ar  
     6     2    32 1   
     7     3     7 ar  
     8     3    14 ar  
     9     3    33 1   
    10     4    18 ar  
    11     4    34 1   
    12     5    15 ar  
    13     5    17 ar  
    14     5    35 1   
    15     6     8 2   
    16     6     9 1   
    17     6    16 1   
    18     7    29 1   
    19     8    15 1   
    20     8    23 1   
    21     9    22 2   
    22     9    36 1   
    23    10    11 1   
    24    10    37 1   
    25    10    38 1   
    26    10    39 1   
    27    11    30 1   
    28    11    40 1   
    29    11    41 1   
    30    12    13 ar  
    31    12    14 ar  
    32    12    42 1   
    33    13    43 1   
    34    14    44 1   
    35    15    18 ar  
    36    16    19 2   
    37    16    20 1   
    38    17    25 1   
    39    18    29 1   
    40    19    21 1   
    41    19    23 1   
    42    20    24 1   
    43    20    26 2   
    44    21    45 1   
    45    21    46 1   
    46    21    47 1   
    47    22    24 1   
    48    23    48 1   
    49    24    49 1   
    50    25    30 1   
    51    25    50 1   
    52    27    30 2   
    53    28    30 2   
@<TRIPOS>SUBSTRUCTURE
     1 87M         1 TEMP              0 ****  ****    0 ROOT
