@<TRIPOS>MOLECULE
87N
   65    67     1     0     0
SMALL
abcg2


@<TRIPOS>ATOM
      1 O3          28.6820   -13.5250    30.7500 o          1 87N      -0.581100
      2 C3          29.8600   -13.4820    31.0720 c          1 87N       0.605100
      3 C3M         30.9050   -14.2870    30.3400 c3         1 87N      -0.182100
      4 N3Q         30.3270   -12.7180    32.0810 ns         1 87N      -0.503900
      5 C3Q         29.4910   -11.9360    32.9610 c6         1 87N       0.065700
      6 C4Q         29.5260   -12.4680    34.3920 c6         1 87N       0.128300
      7 O4Q         29.0340   -13.7840    34.3810 oh         1 87N      -0.711000
      8 C2Q         29.9320   -10.4710    32.9590 c6         1 87N       0.133300
      9 O2Q         29.8860    -9.8890    31.6880 oh         1 87N      -0.664000
     10 C1Q         29.0280    -9.6710    33.8930 c6         1 87N       0.472300
     11 O5Q         29.0950   -10.2090    35.1800 os         1 87N      -0.472000
     12 C5Q         28.6810   -11.5640    35.3000 c6         1 87N       0.149300
     13 C6Q         28.8050   -11.9360    36.7640 c3         1 87N      -0.086100
     14 O3B         27.7340    -9.7040    33.3780 os         1 87N      -0.599400
     15 PB          26.6700    -8.4450    33.5160 p5         1 87N       1.461800
     16 O1B         26.8050    -7.8040    34.8590 o          1 87N      -0.830500
     17 O2B         25.3760    -8.9950    33.0150 o          1 87N      -0.830500
     18 O3A         27.3740    -7.4560    32.4010 os         1 87N      -0.728800
     19 PA          26.6290    -6.2460    31.5690 p5         1 87N       1.462800
     20 O1A         25.4020    -5.7930    32.2900 o          1 87N      -0.842500
     21 O2A         27.7070    -5.2960    31.1580 o          1 87N      -0.842500
     22 O5          26.0920    -7.0640    30.2490 os         1 87N      -0.575400
     23 C5          26.9830    -7.7470    29.3990 c3         1 87N       0.249600
     24 C4          26.7700    -9.2440    29.4770 c5         1 87N       0.095300
     25 O4          25.3820    -9.5340    29.3030 os         1 87N      -0.391000
     26 C7          27.4800   -10.0420    28.3750 c5         1 87N       0.137300
     27 O6          28.7910   -10.4290    28.6760 oh         1 87N      -0.710000
     28 C2          26.5740   -11.2570    28.2610 c5         1 87N      -0.130400
     29 C1          25.1930   -10.6700    28.5240 c5         1 87N       0.337700
     30 N1          24.4900   -10.2860    27.2740 n          1 87N      -0.319000
     31 C10         23.8740   -11.3000    26.5830 c          1 87N       0.609000
     32 O2          23.9010   -12.4580    26.9490 o          1 87N      -0.580000
     33 N3          23.2260   -10.9040    25.4420 ns         1 87N      -0.472500
     34 C6          24.4450    -8.9970    26.8240 cc         1 87N       0.041600
     35 C8          23.8170    -8.6140    25.6960 cd         1 87N      -0.324400
     36 C5M         23.7830    -7.1950    25.2300 c3         1 87N      -0.005900
     37 C9          23.1330    -9.6260    24.9190 c          1 87N       0.594200
     38 O7          22.5120    -9.4220    23.8910 o          1 87N      -0.581000
     39 H1          30.9300   -13.9810    29.2940 hc         1 87N       0.046367
     40 H2          31.9070   -14.1860    30.7530 hc         1 87N       0.046367
     41 H3          30.6270   -15.3400    30.3620 hc         1 87N       0.046367
     42 H4          31.3050   -12.7870    32.3180 hn         1 87N       0.285500
     43 H5          28.4700   -12.0050    32.5800 h1         1 87N       0.144700
     44 H6          30.5680   -12.4380    34.7470 h1         1 87N       0.006700
     45 H7          29.3450   -14.2410    35.1680 ho         1 87N       0.484000
     46 H8          30.9510   -10.4190    33.3760 h1         1 87N      -0.004300
     47 H9          30.4010   -10.4350    31.0840 ho         1 87N       0.481000
     48 H10         29.4050    -8.6460    33.9860 h2         1 87N       0.096700
     49 H11         27.6320   -11.6690    34.9950 h1         1 87N       0.086700
     50 H12         28.4320   -12.9440    36.9410 hc         1 87N       0.029700
     51 H13         29.8420   -11.8910    37.1000 hc         1 87N       0.029700
     52 H14         28.2140   -11.2610    37.3850 hc         1 87N       0.029700
     53 H17         28.0340    -7.5380    29.6250 h1         1 87N       0.008200
     54 H18         26.8130    -7.4030    28.3730 h1         1 87N       0.008200
     55 H19         27.0920    -9.6200    30.4550 h1         1 87N       0.124700
     56 H20         27.4490    -9.4670    27.4370 h1         1 87N       0.014700
     57 H21         29.3680    -9.6630    28.5990 ho         1 87N       0.505000
     58 H22         26.8210   -11.9660    29.0560 hc         1 87N       0.080200
     59 H23         26.6480   -11.7760    27.3070 hc         1 87N       0.080200
     60 H24         24.5350   -11.3690    29.0400 h2         1 87N       0.106700
     61 H25         22.7660   -11.6440    24.9270 hn         1 87N       0.322500
     62 H26         24.9420    -8.2650    27.4420 h4         1 87N       0.252000
     63 H27         24.3380    -6.5510    25.9100 hc         1 87N       0.036700
     64 H28         24.2230    -7.0900    24.2380 hc         1 87N       0.036700
     65 H29         22.7620    -6.8180    25.1710 hc         1 87N       0.036700
@<TRIPOS>BOND
     1     1     2 2   
     2     2     3 1   
     3     2     4 1   
     4     3    39 1   
     5     3    40 1   
     6     3    41 1   
     7     4     5 1   
     8     4    42 1   
     9     5     6 1   
    10     5     8 1   
    11     5    43 1   
    12     6     7 1   
    13     6    12 1   
    14     6    44 1   
    15     7    45 1   
    16     8     9 1   
    17     8    10 1   
    18     8    46 1   
    19     9    47 1   
    20    10    11 1   
    21    10    14 1   
    22    10    48 1   
    23    11    12 1   
    24    12    13 1   
    25    12    49 1   
    26    13    50 1   
    27    13    51 1   
    28    13    52 1   
    29    14    15 1   
    30    15    16 1   
    31    15    17 1   
    32    15    18 1   
    33    18    19 1   
    34    19    20 1   
    35    19    21 1   
    36    19    22 1   
    37    22    23 1   
    38    23    24 1   
    39    23    53 1   
    40    23    54 1   
    41    24    25 1   
    42    24    26 1   
    43    24    55 1   
    44    25    29 1   
    45    26    27 1   
    46    26    28 1   
    47    26    56 1   
    48    27    57 1   
    49    28    29 1   
    50    28    58 1   
    51    28    59 1   
    52    29    30 1   
    53    29    60 1   
    54    30    31 1   
    55    30    34 1   
    56    31    32 2   
    57    31    33 1   
    58    33    37 1   
    59    33    61 1   
    60    34    35 2   
    61    34    62 1   
    62    35    36 1   
    63    35    37 1   
    64    36    63 1   
    65    36    64 1   
    66    36    65 1   
    67    37    38 2   
@<TRIPOS>SUBSTRUCTURE
     1 87N         1 TEMP              0 ****  ****    0 ROOT
