@<TRIPOS>MOLECULE
87N
   65    67     1     0     0
SMALL
No Charge or Current Charge


@<TRIPOS>ATOM
      1 O3          27.8740   -13.3280    30.7680 o          1 87N      -0.581100
      2 C3          29.0250   -12.9400    30.6360 c          1 87N       0.605100
      3 C3M         29.9040   -13.3740    29.4680 c3         1 87N      -0.182100
      4 N3Q         29.6270   -12.0680    31.5150 ns         1 87N      -0.503900
      5 C3Q         29.0360   -11.5900    32.7880 c6         1 87N       0.065700
      6 C4Q         29.4420   -12.5120    33.9870 c6         1 87N       0.128300
      7 O4Q         29.0300   -13.8740    33.7630 oh         1 87N      -0.711000
      8 C2Q         29.4800   -10.1290    33.1050 c6         1 87N       0.133300
      9 O2Q         29.1940    -9.2380    32.0100 oh         1 87N      -0.664000
     10 C1Q         28.8440    -9.6670    34.4750 c6         1 87N       0.472300
     11 O5Q         29.2480   -10.5810    35.5190 os         1 87N      -0.472000
     12 C5Q         28.8400   -11.9530    35.3170 c6         1 87N       0.149300
     13 C6Q         29.3100   -12.7330    36.5740 c3         1 87N      -0.086100
     14 O3B         27.4100    -9.6200    34.4740 os         1 87N      -0.599400
     15 PB          26.6870    -8.1850    34.4190 p5         1 87N       1.461800
     16 O1B         27.4830    -7.1870    35.1910 o          1 87N      -0.830500
     17 O2B         25.3010    -8.3330    34.9540 o          1 87N      -0.830500
     18 O3A         26.6720    -7.9990    32.8560 os         1 87N      -0.728800
     19 PA          26.5880    -6.4820    32.4360 p5         1 87N       1.462800
     20 O1A         25.4870    -5.7320    33.1110 o          1 87N      -0.842500
     21 O2A         27.8940    -5.7600    32.5000 o          1 87N      -0.842500
     22 O5          26.1670    -6.7140    30.8970 os         1 87N      -0.575400
     23 C5          27.1040    -7.2540    29.9530 c3         1 87N       0.249600
     24 C4          26.7970    -8.7560    29.7070 c5         1 87N       0.095300
     25 O4          25.5300    -8.9090    29.0350 os         1 87N      -0.391000
     26 C7          27.7700    -9.4520    28.7120 c5         1 87N       0.137300
     27 O6          29.0180    -9.8200    29.3000 oh         1 87N      -0.710000
     28 C2          26.9460   -10.7000    28.2930 c5         1 87N      -0.130400
     29 C1          25.4710   -10.2670    28.5720 c5         1 87N       0.337700
     30 N1          24.6930   -10.3460    27.3100 n          1 87N      -0.319000
     31 C10         23.6490   -11.2820    27.2280 c          1 87N       0.609000
     32 O2          23.3180   -12.0070    28.1510 o          1 87N      -0.580000
     33 N3          23.0060   -11.3510    26.0340 ns         1 87N      -0.472500
     34 C6          25.0470    -9.5540    26.2130 cc         1 87N       0.041600
     35 C8          24.3600    -9.6710    25.0230 cd         1 87N      -0.324400
     36 C5M         24.6740    -8.8470    23.7940 c3         1 87N      -0.005900
     37 C9          23.2450   -10.6410    24.9020 c          1 87N       0.594200
     38 O7          22.5800   -10.8130    23.8940 o          1 87N      -0.581000
     39 H1          30.2980   -12.4850    28.9630 hc         1 87N       0.046367
     40 H2          30.8150   -13.8380    29.8630 hc         1 87N       0.046367
     41 H3          29.3830   -14.0400    28.7700 hc         1 87N       0.046367
     42 H4          30.5880   -11.8220    31.3110 hn         1 87N       0.285500
     43 H5          27.9390   -11.6030    32.7010 h1         1 87N       0.144700
     44 H6          30.5390   -12.4840    34.0730 h1         1 87N       0.006700
     45 H7          29.5690   -14.4390    34.3620 ho         1 87N       0.484000
     46 H8          30.5710   -10.1450    33.2450 h1         1 87N      -0.004300
     47 H9          29.2170    -9.7540    31.1630 ho         1 87N       0.481000
     48 H10         29.2630    -8.6770    34.7130 h2         1 87N       0.096700
     49 H11         27.7410   -12.0010    35.2720 h1         1 87N       0.086700
     50 H12         28.9590   -13.7710    36.5540 hc         1 87N       0.029700
     51 H13         30.4040   -12.7480    36.6480 hc         1 87N       0.029700
     52 H14         28.9160   -12.2740    37.4890 hc         1 87N       0.029700
     53 H17         28.1360    -7.1560    30.3120 h1         1 87N       0.008200
     54 H18         27.0320    -6.7130    29.0000 h1         1 87N       0.008200
     55 H19         26.7690    -9.2870    30.6680 h1         1 87N       0.124700
     56 H20         27.9410    -8.7990    27.8460 h1         1 87N       0.014700
     57 H21         29.6580    -9.9290    28.5570 ho         1 87N       0.505000
     58 H22         27.1900   -11.5720    28.9050 hc         1 87N       0.080200
     59 H23         27.1360   -10.9900    27.2530 hc         1 87N       0.080200
     60 H24         25.0090   -10.9080    29.3350 h2         1 87N       0.106700
     61 H25         22.2560   -12.0210    25.9810 hn         1 87N       0.322500
     62 H26         25.8660    -8.8660    26.4090 h4         1 87N       0.252000
     63 H27         25.5100    -8.1610    23.9730 hc         1 87N       0.036700
     64 H28         24.9490    -9.4880    22.9470 hc         1 87N       0.036700
     65 H29         23.8100    -8.2430    23.4910 hc         1 87N       0.036700
@<TRIPOS>BOND
     1     1     2 2   
     2     2     3 1   
     3     2     4 1   
     4     3    39 1   
     5     3    40 1   
     6     3    41 1   
     7     4     5 1   
     8     4    42 1   
     9     5     6 1   
    10     5     8 1   
    11     5    43 1   
    12     6     7 1   
    13     6    12 1   
    14     6    44 1   
    15     7    45 1   
    16     8     9 1   
    17     8    10 1   
    18     8    46 1   
    19     9    47 1   
    20    10    11 1   
    21    10    14 1   
    22    10    48 1   
    23    11    12 1   
    24    12    13 1   
    25    12    49 1   
    26    13    50 1   
    27    13    51 1   
    28    13    52 1   
    29    14    15 1   
    30    15    16 1   
    31    15    17 1   
    32    15    18 1   
    33    18    19 1   
    34    19    20 1   
    35    19    21 1   
    36    19    22 1   
    37    22    23 1   
    38    23    24 1   
    39    23    53 1   
    40    23    54 1   
    41    24    25 1   
    42    24    26 1   
    43    24    55 1   
    44    25    29 1   
    45    26    27 1   
    46    26    28 1   
    47    26    56 1   
    48    27    57 1   
    49    28    29 1   
    50    28    58 1   
    51    28    59 1   
    52    29    30 1   
    53    29    60 1   
    54    30    31 1   
    55    30    34 1   
    56    31    32 2   
    57    31    33 1   
    58    33    37 1   
    59    33    61 1   
    60    34    35 2   
    61    34    62 1   
    62    35    36 1   
    63    35    37 1   
    64    36    63 1   
    65    36    64 1   
    66    36    65 1   
    67    37    38 2   
@<TRIPOS>SUBSTRUCTURE
     1 87N         1 TEMP              0 ****  ****    0 ROOT
