@<TRIPOS>MOLECULE
87P
   51    54     1     0     0
SMALL
No Charge or Current Charge


@<TRIPOS>ATOM
      1 C4           2.8930     1.0740    -0.2450 ca         1 87P      -0.071000
      2 C5          -0.6120     3.5150    -1.2440 ca         1 87P      -0.117000
      3 C6          -1.4430     4.1220     0.9640 ca         1 87P      -0.117000
      4 C7           1.7320     1.8110     0.0300 ca         1 87P      -0.170000
      5 C8           1.5930    -0.9700    -0.1770 ca         1 87P      -0.068000
      6 C10         -2.9890    -1.8220     0.3520 cc         1 87P      -0.269600
      7 C13         -0.8630     3.1770     0.1010 ca         1 87P       0.087100
      8 C15         -0.8570    -1.0400     0.2070 cd         1 87P      -0.132000
      9 C17         -4.4660    -1.8620     0.1870 c          1 87P       0.618700
     10 C20         -4.1340     0.1640    -1.3480 c6         1 87P      -0.066400
     11 C22          3.7210    -3.2540     1.0300 c3         1 87P      -0.341100
     12 C1          -1.4870     5.7530    -0.8430 ca         1 87P      -0.108000
     13 C2          -0.9200     4.8050    -1.7130 ca         1 87P      -0.099000
     14 C3          -1.7510     5.4110     0.4950 ca         1 87P      -0.099000
     15 C9           0.3990    -0.2500     0.0680 ca         1 87P      -0.034000
     16 C11         -2.1830    -0.7160    -0.0030 cc         1 87P      -0.057300
     17 C12          2.8320    -0.3240    -0.3310 ca         1 87P       0.196000
     18 C14          0.4870     1.1650     0.1830 ca         1 87P       0.165100
     19 C16         -2.1880    -2.8310     0.8120 cd         1 87P      -0.066300
     20 C18         -2.7990     0.5110    -0.6450 c6         1 87P      -0.006100
     21 C19         -5.0880    -0.5770    -0.3790 c6         1 87P      -0.175400
     22 N23         -0.8800    -2.3490     0.7250 na         1 87P      -0.099000
     23 N24          3.9900    -1.0510    -0.6030 nu         1 87P      -0.886100
     24 O25         -5.1580    -2.8430     0.4330 o          1 87P      -0.555100
     25 O26          5.1010    -1.0700     1.6270 o          1 87P      -0.535500
     26 O27          5.9330    -2.5560    -0.2560 o          1 87P      -0.535500
     27 O28         -0.5950     1.9140     0.5830 os         1 87P      -0.239200
     28 S29          4.8300    -1.9650     0.5020 s6         1 87P       1.171100
     29 H1           3.8430     1.5890    -0.3610 ha         1 87P       0.124000
     30 H3          -1.6510     3.8540     1.9970 ha         1 87P       0.129500
     31 H4           1.8070     2.8890     0.1500 ha         1 87P       0.136000
     32 H5           1.5560    -2.0470    -0.2990 ha         1 87P       0.126000
     33 H6          -4.6100     1.0820    -1.7190 hc         1 87P       0.043700
     34 H7          -3.9370    -0.4660    -2.2280 hc         1 87P       0.043700
     35 H11          2.8910    -2.7820     1.5640 h1         1 87P       0.103367
     36 H12          3.3800    -3.7840     0.1350 h1         1 87P       0.103367
     37 H13          4.2850    -3.9180     1.6930 h1         1 87P       0.103367
     38 H14         -1.7260     6.7500    -1.2070 ha         1 87P       0.119000
     39 H15         -0.7240     5.0680    -2.7510 ha         1 87P       0.119500
     40 H16         -2.1950     6.1430     1.1660 ha         1 87P       0.119500
     41 H17         -2.1150     0.9540    -1.3800 hc         1 87P       0.051700
     42 H18         -3.0000     1.2770     0.1160 hc         1 87P       0.051700
     43 H19         -6.0700    -0.7950    -0.8200 hc         1 87P       0.065200
     44 H20         -5.2490     0.0870     0.4800 hc         1 87P       0.065200
     45 H21         -0.0610    -2.8700     1.0160 hn         1 87P       0.343000
     46 H22          4.7430    -0.5050    -1.0030 hn         1 87P       0.494000
     47 C21         -2.5370    -4.2120     1.3080 c3         1 87P      -0.033800
     48 H2          -0.1860     2.7830    -1.9260 ha         1 87P       0.129500
     49 H8          -3.0100    -4.8050     0.5170 hc         1 87P       0.056700
     50 H9          -1.6460    -4.7570     1.6440 hc         1 87P       0.056700
     51 H10         -3.2330    -4.1620     2.1540 hc         1 87P       0.056700
@<TRIPOS>BOND
     1     1     4 ar  
     2     1    17 ar  
     3     1    29 1   
     4     2     7 ar  
     5     2    13 ar  
     6     2    48 1   
     7     3     7 ar  
     8     3    14 ar  
     9     3    30 1   
    10     4    18 ar  
    11     4    31 1   
    12     5    15 ar  
    13     5    17 ar  
    14     5    32 1   
    15     6     9 1   
    16     6    16 1   
    17     6    19 2   
    18     7    27 1   
    19     8    15 1   
    20     8    16 2   
    21     8    22 1   
    22     9    21 1   
    23     9    24 2   
    24    10    20 1   
    25    10    21 1   
    26    10    33 1   
    27    10    34 1   
    28    11    28 1   
    29    11    35 1   
    30    11    36 1   
    31    11    37 1   
    32    12    13 ar  
    33    12    14 ar  
    34    12    38 1   
    35    13    39 1   
    36    14    40 1   
    37    15    18 ar  
    38    16    20 1   
    39    17    23 1   
    40    18    27 1   
    41    19    22 1   
    42    19    47 1   
    43    20    41 1   
    44    20    42 1   
    45    21    43 1   
    46    21    44 1   
    47    22    45 1   
    48    23    28 1   
    49    23    46 1   
    50    25    28 2   
    51    26    28 2   
    52    47    49 1   
    53    47    50 1   
    54    47    51 1   
@<TRIPOS>SUBSTRUCTURE
     1 87P         1 TEMP              0 ****  ****    0 ROOT
