@<TRIPOS>MOLECULE
87P
   51    54     1     0     0
SMALL
abcg2


@<TRIPOS>ATOM
      1 C4           2.6750     0.9790    -0.4960 ca         1 87P      -0.071000
      2 C5          -1.0440     3.6910    -1.0180 ca         1 87P      -0.117000
      3 C6          -0.7180     3.9710     1.3600 ca         1 87P      -0.117000
      4 C7           1.5510     1.7390    -0.2200 ca         1 87P      -0.170000
      5 C8           1.3760    -1.0220    -0.2820 ca         1 87P      -0.068000
      6 C10         -3.1200    -1.8040     0.2710 cc         1 87P      -0.269600
      7 C13         -0.8290     3.1560     0.2450 ca         1 87P       0.087100
      8 C15         -1.0400    -0.9580     0.2620 cd         1 87P      -0.132000
      9 C17         -4.5150    -1.9650    -0.0770 c          1 87P       0.618700
     10 C20         -3.9710    -0.4410    -2.0410 c6         1 87P      -0.066400
     11 C22          3.9580    -3.0810     1.0800 c3         1 87P      -0.341100
     12 C1          -1.0420     5.8970    -0.0520 ca         1 87P      -0.108000
     13 C2          -1.1490     5.0660    -1.1610 ca         1 87P      -0.099000
     14 C3          -0.8300     5.3470     1.2050 ca         1 87P      -0.099000
     15 C9           0.2320    -0.2820     0.0130 ca         1 87P      -0.034000
     16 C11         -2.2880    -0.7850    -0.2770 cc         1 87P      -0.057300
     17 C12          2.5950    -0.4060    -0.5250 ca         1 87P       0.196000
     18 C14          0.3400     1.1140     0.0550 ca         1 87P       0.165100
     19 C16         -2.3480    -2.5740     1.1350 cd         1 87P      -0.066300
     20 C18         -2.7870     0.1790    -1.2990 c6         1 87P      -0.006100
     21 C19         -5.0380    -0.9460    -1.0710 c6         1 87P      -0.175400
     22 N23         -1.1110    -2.0510     1.1030 na         1 87P      -0.099000
     23 N24          3.7260    -1.2100    -0.8380 nu         1 87P      -0.886100
     24 O25         -5.2330    -2.8330     0.3940 o          1 87P      -0.555100
     25 O26          4.7740    -0.6220     1.4480 o          1 87P      -0.535500
     26 O27          6.0000    -2.0320    -0.2260 o          1 87P      -0.535500
     27 O28         -0.7780     1.7930     0.4100 os         1 87P      -0.239200
     28 S29          4.7500    -1.6440     0.4110 s6         1 87P       1.171100
     29 H1           3.6160     1.4740    -0.6990 ha         1 87P       0.124000
     30 H3          -0.5490     3.5360     2.3360 ha         1 87P       0.129500
     31 H4           1.6370     2.8170    -0.1930 ha         1 87P       0.136000
     32 H5           1.3040    -2.1000    -0.3630 ha         1 87P       0.126000
     33 H6          -4.4140     0.2910    -2.7180 hc         1 87P       0.043700
     34 H7          -3.6190    -1.2710    -2.6600 hc         1 87P       0.043700
     35 H11          2.9770    -2.8150     1.4670 h1         1 87P       0.103367
     36 H12          3.8710    -3.8370     0.3040 h1         1 87P       0.103367
     37 H13          4.5820    -3.4440     1.8950 h1         1 87P       0.103367
     38 H14         -1.1260     6.9700    -0.1680 ha         1 87P       0.119000
     39 H15         -1.3200     5.4890    -2.1420 ha         1 87P       0.119500
     40 H16         -0.7470     5.9900     2.0710 ha         1 87P       0.119500
     41 H17         -1.9960     0.4500    -2.0010 hc         1 87P       0.051700
     42 H18         -3.1100     1.1080    -0.8190 hc         1 87P       0.051700
     43 H19         -5.8860    -1.3760    -1.6060 hc         1 87P       0.065200
     44 H20         -5.4310    -0.1020    -0.4910 hc         1 87P       0.065200
     45 H21         -0.3450    -2.3830     1.6700 hn         1 87P       0.343000
     46 H22          4.2730    -0.8800    -1.6280 hn         1 87P       0.494000
     47 C21         -2.6960    -3.7460     1.9770 c3         1 87P      -0.033800
     48 H2          -1.1330     3.0380    -1.8770 ha         1 87P       0.129500
     49 H8          -3.0920    -4.5610     1.3720 hc         1 87P       0.056700
     50 H9          -1.8220    -4.1170     2.5120 hc         1 87P       0.056700
     51 H10         -3.4600    -3.4940     2.7120 hc         1 87P       0.056700
@<TRIPOS>BOND
     1     1     4 ar  
     2     1    17 ar  
     3     1    29 1   
     4     2     7 ar  
     5     2    13 ar  
     6     2    48 1   
     7     3     7 ar  
     8     3    14 ar  
     9     3    30 1   
    10     4    18 ar  
    11     4    31 1   
    12     5    15 ar  
    13     5    17 ar  
    14     5    32 1   
    15     6     9 1   
    16     6    16 1   
    17     6    19 2   
    18     7    27 1   
    19     8    15 1   
    20     8    16 2   
    21     8    22 1   
    22     9    21 1   
    23     9    24 2   
    24    10    20 1   
    25    10    21 1   
    26    10    33 1   
    27    10    34 1   
    28    11    28 1   
    29    11    35 1   
    30    11    36 1   
    31    11    37 1   
    32    12    13 ar  
    33    12    14 ar  
    34    12    38 1   
    35    13    39 1   
    36    14    40 1   
    37    15    18 ar  
    38    16    20 1   
    39    17    23 1   
    40    18    27 1   
    41    19    22 1   
    42    19    47 1   
    43    20    41 1   
    44    20    42 1   
    45    21    43 1   
    46    21    44 1   
    47    22    45 1   
    48    23    28 1   
    49    23    46 1   
    50    25    28 2   
    51    26    28 2   
    52    47    49 1   
    53    47    50 1   
    54    47    51 1   
@<TRIPOS>SUBSTRUCTURE
     1 87P         1 TEMP              0 ****  ****    0 ROOT
