@<TRIPOS>MOLECULE
87Q
   61    61     1     0     0
SMALL
No Charge or Current Charge


@<TRIPOS>ATOM
      1 C10        131.1010   133.4770   169.4950 c2         1 87Q      -0.209200
      2 C13        130.0640   132.7120   172.3830 c3         1 87Q      -0.028200
      3 C15        129.1170   132.2250   174.7150 c2         1 87Q      -0.154200
      4 C17        129.7070   134.6010   175.4870 c3         1 87Q      -0.035400
      5 C22        128.1610   131.5520   170.9370 c5         1 87Q       0.179300
      6 C24        127.7390   131.7650   169.4420 c5         1 87Q      -0.082400
      7 C01        134.0980   135.8890   175.5160 c3         1 87Q      -0.087100
      8 C02        133.8070   135.1020   174.2240 c3         1 87Q      -0.077400
      9 C03        133.7430   135.9990   172.9680 c3         1 87Q      -0.074400
     10 C05        133.2950   136.0990   170.4220 c3         1 87Q      -0.098400
     11 C06        132.8220   135.3650   169.1340 c3         1 87Q       0.218200
     12 C07        133.8600   134.3280   168.6390 c3         1 87Q      -0.115100
     13 C09        131.4350   134.7740   169.3450 c2         1 87Q      -0.196200
     14 C11        129.6560   133.1140   169.8350 c5         1 87Q      -0.072500
     15 C12        129.6240   132.1110   171.0220 c5         1 87Q      -0.085700
     16 C16        128.5970   133.6130   175.0490 c3         1 87Q      -0.050200
     17 C18        130.5360   134.1760   176.7290 c3         1 87Q      -0.210400
     18 C19        129.6540   134.0640   177.9870 c          1 87Q       0.713000
     19 C25        129.0440   132.2180   168.7320 c5         1 87Q       0.174300
     20 O08        132.6980   136.3450   168.1060 oh         1 87Q      -0.661000
     21 O20        129.1830   132.9740   178.2730 o          1 87Q      -0.742000
     22 O21        129.4480   135.0790   178.6370 o          1 87Q      -0.742000
     23 O26        128.7900   132.9440   167.5340 oh         1 87Q      -0.656000
     24 H1         131.8580   132.6940   169.4370 ha         1 87Q       0.162000
     25 H3         131.1480   132.8700   172.3600 hc         1 87Q       0.050200
     26 H4         129.6290   133.7120   172.4940 hc         1 87Q       0.050200
     27 H5         128.9560   131.4970   175.5150 ha         1 87Q       0.190000
     28 H7         130.3930   134.7530   174.6460 hc         1 87Q       0.016700
     29 H8         129.2470   135.5770   175.6850 hc         1 87Q       0.016700
     30 H9         128.1700   130.4800   171.1810 h1         1 87Q       0.034700
     31 H10        126.9600   132.5320   169.3560 hc         1 87Q       0.063200
     32 H11        127.3320   130.8500   168.9970 hc         1 87Q       0.063200
     33 H12        134.1340   135.2100   176.3770 hc         1 87Q       0.034367
     34 H13        135.0610   136.4080   175.4470 hc         1 87Q       0.034367
     35 H14        133.3140   136.6330   175.7020 hc         1 87Q       0.034367
     36 H15        132.8560   134.5680   174.3410 hc         1 87Q       0.042700
     37 H16        134.5840   134.3400   174.0870 hc         1 87Q       0.042700
     38 H17        134.7080   136.5020   172.8310 hc         1 87Q       0.034200
     39 H18        132.9910   136.7830   173.1250 hc         1 87Q       0.034200
     40 H19        132.4310   134.7090   171.8500 hc         1 87Q       0.042700
     41 H20        134.1420   134.4270   171.5360 hc         1 87Q       0.042700
     42 H21        134.2740   136.5610   170.2410 hc         1 87Q       0.041700
     43 H22        132.6000   136.9220   170.6320 hc         1 87Q       0.041700
     44 H23        134.0210   133.5360   169.3790 hc         1 87Q       0.039700
     45 H24        133.5240   133.8560   167.7080 hc         1 87Q       0.039700
     46 H25        134.8290   134.8040   168.4470 hc         1 87Q       0.039700
     47 H26        130.6670   135.5440   169.4320 ha         1 87Q       0.184000
     48 H28        129.0360   133.9990   170.0330 hc         1 87Q       0.078700
     49 H29        130.3200   131.2830   170.8320 hc         1 87Q       0.042700
     50 H30        130.0690   130.8070   173.4810 ha         1 87Q       0.153000
     51 H32        128.0780   134.0390   174.1830 hc         1 87Q       0.043700
     52 H33        127.8370   133.5450   175.8370 hc         1 87Q       0.043700
     53 H34        130.9940   133.2100   176.4860 hc         1 87Q       0.016700
     54 H35        131.2700   134.9810   176.8590 hc         1 87Q       0.016700
     55 H36        129.6940   131.3570   168.5220 h1         1 87Q       0.020700
     56 H37        133.5940   136.7160   167.9650 ho         1 87Q       0.435000
     57 H39        127.7880   132.3010   172.6700 ho         1 87Q       0.460000
     58 H40        129.6040   133.4680   167.3640 ho         1 87Q       0.445000
     59 C14        129.7340   131.8410   173.5830 c2         1 87Q      -0.299200
     60 O23        127.2790   132.2250   171.8310 oh         1 87Q      -0.666000
     61 C04        133.3910   135.2100   171.6890 c3         1 87Q      -0.074400
@<TRIPOS>BOND
     1     1    13 2   
     2     1    14 1   
     3     1    24 1   
     4     2    15 1   
     5     2    25 1   
     6     2    26 1   
     7     2    59 1   
     8     3    16 1   
     9     3    27 1   
    10     3    59 2   
    11     4    16 1   
    12     4    17 1   
    13     4    28 1   
    14     4    29 1   
    15     5     6 1   
    16     5    15 1   
    17     5    30 1   
    18     5    60 1   
    19     6    19 1   
    20     6    31 1   
    21     6    32 1   
    22     7     8 1   
    23     7    33 1   
    24     7    34 1   
    25     7    35 1   
    26     8     9 1   
    27     8    36 1   
    28     8    37 1   
    29     9    38 1   
    30     9    39 1   
    31     9    61 1   
    32    10    11 1   
    33    10    42 1   
    34    10    43 1   
    35    10    61 1   
    36    11    12 1   
    37    11    13 1   
    38    11    20 1   
    39    12    44 1   
    40    12    45 1   
    41    12    46 1   
    42    13    47 1   
    43    14    15 1   
    44    14    19 1   
    45    14    48 1   
    46    15    49 1   
    47    16    51 1   
    48    16    52 1   
    49    17    18 1   
    50    17    53 1   
    51    17    54 1   
    52    18    21 1   
    53    18    22 1   
    54    19    23 1   
    55    19    55 1   
    56    20    56 1   
    57    23    58 1   
    58    40    61 1   
    59    41    61 1   
    60    50    59 1   
    61    57    60 1   
@<TRIPOS>SUBSTRUCTURE
     1 87Q         1 TEMP              0 ****  ****    0 ROOT
