@<TRIPOS>MOLECULE
87Q
   61    61     1     0     0
SMALL
abcg2


@<TRIPOS>ATOM
      1 C10        131.0530   133.5390   169.4630 c2         1 87Q      -0.209200
      2 C13        129.7860   132.9840   172.2940 c3         1 87Q      -0.028200
      3 C15        129.1260   132.5330   174.6960 c2         1 87Q      -0.154200
      4 C17        129.9310   134.7510   175.5960 c3         1 87Q      -0.035400
      5 C22        128.1220   131.5930   170.8690 c5         1 87Q       0.179300
      6 C24        127.8670   131.5190   169.3540 c5         1 87Q      -0.082400
      7 C01        133.9990   135.8240   175.5260 c3         1 87Q      -0.087100
      8 C02        133.8240   135.0390   174.2340 c3         1 87Q      -0.077400
      9 C03        133.6470   135.9370   173.0160 c3         1 87Q      -0.074400
     10 C05        133.2490   136.0550   170.5130 c3         1 87Q      -0.098400
     11 C06        132.8170   135.3490   169.2130 c3         1 87Q       0.218200
     12 C07        133.8260   134.2840   168.7980 c3         1 87Q      -0.115100
     13 C09        131.4220   134.8140   169.3970 c2         1 87Q      -0.196200
     14 C11        129.6620   133.0770   169.7320 c5         1 87Q      -0.072500
     15 C12        129.5240   132.2300   170.9990 c5         1 87Q      -0.085700
     16 C16        128.7430   133.9320   175.0750 c3         1 87Q      -0.050200
     17 C18        130.7070   134.0760   176.7200 c3         1 87Q      -0.210400
     18 C19        129.8750   133.7350   177.9710 c          1 87Q       0.713000
     19 C25        129.1020   132.1160   168.6770 c5         1 87Q       0.174300
     20 O08        132.6970   136.3220   168.1780 oh         1 87Q      -0.661000
     21 O20        130.1310   132.6550   178.5430 o          1 87Q      -0.742000
     22 O21        129.0310   134.5820   178.3330 o          1 87Q      -0.742000
     23 O26        128.7600   132.7080   167.4500 oh         1 87Q      -0.656000
     24 H1         131.7920   132.7490   169.3400 ha         1 87Q       0.162000
     25 H3         130.8240   133.3350   172.2760 hc         1 87Q       0.050200
     26 H4         129.1740   133.8890   172.3350 hc         1 87Q       0.050200
     27 H5         129.0720   131.7910   175.4870 ha         1 87Q       0.190000
     28 H7         130.6130   134.9490   174.7620 hc         1 87Q       0.016700
     29 H8         129.5650   135.7240   175.9320 hc         1 87Q       0.016700
     30 H9         128.1300   130.5920   171.3160 h1         1 87Q       0.034700
     31 H10        126.9950   132.1290   169.1070 hc         1 87Q       0.063200
     32 H11        127.6590   130.5040   169.0140 hc         1 87Q       0.063200
     33 H12        134.1320   135.1620   176.3830 hc         1 87Q       0.034367
     34 H13        134.8690   136.4800   175.4760 hc         1 87Q       0.034367
     35 H14        133.1260   136.4480   175.7270 hc         1 87Q       0.034367
     36 H15        132.9560   134.3780   174.3240 hc         1 87Q       0.042700
     37 H16        134.6870   134.3850   174.0790 hc         1 87Q       0.042700
     38 H17        134.5220   136.5890   172.9140 hc         1 87Q       0.034200
     39 H18        132.7920   136.6020   173.1790 hc         1 87Q       0.034200
     40 H19        132.5660   134.5050   171.8450 hc         1 87Q       0.042700
     41 H20        134.2910   134.4870   171.5690 hc         1 87Q       0.042700
     42 H21        134.1850   136.5920   170.3180 hc         1 87Q       0.041700
     43 H22        132.4990   136.8200   170.7450 hc         1 87Q       0.041700
     44 H23        133.9260   133.4920   169.5400 hc         1 87Q       0.039700
     45 H24        133.5380   133.8220   167.8530 hc         1 87Q       0.039700
     46 H25        134.8140   134.7330   168.6700 hc         1 87Q       0.039700
     47 H26        130.6630   135.5820   169.5370 ha         1 87Q       0.184000
     48 H28        128.9900   133.9430   169.8040 hc         1 87Q       0.078700
     49 H29        130.2490   131.4080   170.9310 hc         1 87Q       0.042700
     50 H30        129.8690   131.0870   173.4030 ha         1 87Q       0.153000
     51 H32        128.3040   134.4560   174.2220 hc         1 87Q       0.043700
     52 H33        127.9720   133.8970   175.8470 hc         1 87Q       0.043700
     53 H34        131.2010   133.1750   176.3450 hc         1 87Q       0.016700
     54 H35        131.5170   134.7480   177.0300 hc         1 87Q       0.016700
     55 H36        129.8520   131.3240   168.5270 h1         1 87Q       0.020700
     56 H37        133.5450   136.7740   168.0980 ho         1 87Q       0.435000
     57 H39        127.2200   132.3410   172.4150 ho         1 87Q       0.460000
     58 H40        129.5620   133.0710   167.0600 ho         1 87Q       0.445000
     59 C14        129.5840   132.1310   173.5100 c2         1 87Q      -0.299200
     60 O23        127.1030   132.3750   171.4590 oh         1 87Q      -0.666000
     61 C04        133.4380   135.1540   171.7260 c3         1 87Q      -0.074400
@<TRIPOS>BOND
     1     1    13 2   
     2     1    14 1   
     3     1    24 1   
     4     2    15 1   
     5     2    25 1   
     6     2    26 1   
     7     2    59 1   
     8     3    16 1   
     9     3    27 1   
    10     3    59 2   
    11     4    16 1   
    12     4    17 1   
    13     4    28 1   
    14     4    29 1   
    15     5     6 1   
    16     5    15 1   
    17     5    30 1   
    18     5    60 1   
    19     6    19 1   
    20     6    31 1   
    21     6    32 1   
    22     7     8 1   
    23     7    33 1   
    24     7    34 1   
    25     7    35 1   
    26     8     9 1   
    27     8    36 1   
    28     8    37 1   
    29     9    38 1   
    30     9    39 1   
    31     9    61 1   
    32    10    11 1   
    33    10    42 1   
    34    10    43 1   
    35    10    61 1   
    36    11    12 1   
    37    11    13 1   
    38    11    20 1   
    39    12    44 1   
    40    12    45 1   
    41    12    46 1   
    42    13    47 1   
    43    14    15 1   
    44    14    19 1   
    45    14    48 1   
    46    15    49 1   
    47    16    51 1   
    48    16    52 1   
    49    17    18 1   
    50    17    53 1   
    51    17    54 1   
    52    18    21 1   
    53    18    22 1   
    54    19    23 1   
    55    19    55 1   
    56    20    56 1   
    57    23    58 1   
    58    40    61 1   
    59    41    61 1   
    60    50    59 1   
    61    57    60 1   
@<TRIPOS>SUBSTRUCTURE
     1 87Q         1 TEMP              0 ****  ****    0 ROOT
