@<TRIPOS>MOLECULE
87R
   44    46     1     0     0
SMALL
No Charge or Current Charge


@<TRIPOS>ATOM
      1 C18         -2.3050     1.1510    -1.0790 ca         1 87R      -0.089500
      2 C22         -2.1950     0.5120     1.2610 ca         1 87R      -0.089500
      3 C19         -3.5230     0.4620    -1.2150 ca         1 87R      -0.098500
      4 C21         -3.4130    -0.1760     1.1270 ca         1 87R      -0.098500
      5 C1           2.6380    -1.0630     1.2640 cc         1 87R       0.409500
      6 C2           2.9160    -0.0500     0.3300 cc         1 87R      -0.359800
      7 C17         -1.6320     1.1870     0.1580 ca         1 87R      -0.080300
      8 C20         -4.0870    -0.2070    -0.1050 ca         1 87R       0.089100
      9 C3           4.1870    -0.3010    -0.0640 cd         1 87R       0.424500
     10 C6           5.8950    -1.9370     0.4360 cc         1 87R      -0.048000
     11 C8           6.0840    -0.0760    -1.1290 cc         1 87R       0.377900
     12 C7           6.6300    -1.1950    -0.4940 cd         1 87R      -0.176300
     13 C10          8.0430    -1.6140    -0.8240 c3         1 87R      -0.035800
     14 C15         -0.3480     3.0240     1.3860 c3         1 87R      -0.088400
     15 C14         -0.3060     1.9340     0.2840 c3         1 87R       0.163000
     16 C24         -6.0910    -1.0330    -1.3450 c3         1 87R       0.514000
     17 N5           3.6300    -1.9170     1.4790 nd         1 87R      -0.576100
     18 N9           4.8710     0.4580    -0.9870 nd         1 87R      -0.604000
     19 N4           4.6160    -1.4300     0.6310 na         1 87R       0.120900
     20 N13          0.7800     0.9780     0.5120 ns         1 87R      -0.511900
     21 O12          2.2950     1.8840    -0.9160 o          1 87R      -0.577100
     22 O23         -5.2800    -0.9060    -0.1580 os         1 87R      -0.405100
     23 F25         -5.4290    -1.6530    -2.3490 f          1 87R      -0.109667
     24 F26         -7.1950    -1.7700    -1.0900 f          1 87R      -0.109667
     25 F27         -6.5160     0.1670    -1.8020 f          1 87R      -0.109667
     26 H1          -1.8830     1.6600    -1.9440 ha         1 87R       0.119500
     27 H2          -1.6920     0.5170     2.2250 ha         1 87R       0.119500
     28 H3          -4.0080     0.4630    -2.1860 ha         1 87R       0.133000
     29 H4          -3.8390    -0.6910     1.9840 ha         1 87R       0.133000
     30 H6           6.2050    -2.8160     0.9880 h4         1 87R       0.165000
     31 H7           6.6660     0.4860    -1.8480 h4         1 87R       0.036100
     32 H8           8.1020    -2.0370    -1.8340 hc         1 87R       0.051700
     33 H9           8.7310    -0.7610    -0.7780 hc         1 87R       0.051700
     34 H10          8.4160    -2.3730    -0.1250 hc         1 87R       0.051700
     35 H14         -0.4840     2.5560     2.3680 hc         1 87R       0.048200
     36 H15         -1.2280     3.6570     1.2150 hc         1 87R       0.048200
     37 H16         -0.1230     2.4460    -0.6710 h1         1 87R       0.079700
     38 H17          0.6130     0.2270     1.1640 hn         1 87R       0.308500
     39 C11          2.0140     1.0220    -0.0990 c          1 87R       0.651300
     40 C16          0.9000     3.9300     1.4370 c3         1 87R      -0.089100
     41 H5           1.7180    -1.2130     1.8130 h4         1 87R       0.045800
     42 H11          1.7950     3.3540     1.7040 hc         1 87R       0.037033
     43 H12          1.0720     4.4110     0.4670 hc         1 87R       0.037033
     44 H13          0.7690     4.7160     2.1900 hc         1 87R       0.037033
@<TRIPOS>BOND
     1     1     3 ar  
     2     1     7 ar  
     3     1    26 1   
     4     2     4 ar  
     5     2     7 ar  
     6     2    27 1   
     7     3     8 ar  
     8     3    28 1   
     9     4     8 ar  
    10     4    29 1   
    11     5     6 1   
    12     5    17 2   
    13     5    41 1   
    14     6     9 2   
    15     6    39 1   
    16     7    15 1   
    17     8    22 1   
    18     9    18 1   
    19     9    19 1   
    20    10    12 2   
    21    10    19 1   
    22    10    30 1   
    23    11    12 1   
    24    11    18 2   
    25    11    31 1   
    26    12    13 1   
    27    13    32 1   
    28    13    33 1   
    29    13    34 1   
    30    14    15 1   
    31    14    35 1   
    32    14    36 1   
    33    14    40 1   
    34    15    20 1   
    35    15    37 1   
    36    16    22 1   
    37    16    23 1   
    38    16    24 1   
    39    16    25 1   
    40    17    19 1   
    41    20    38 1   
    42    20    39 1   
    43    21    39 2   
    44    40    42 1   
    45    40    43 1   
    46    40    44 1   
@<TRIPOS>SUBSTRUCTURE
     1 87R         1 TEMP              0 ****  ****    0 ROOT
