@<TRIPOS>MOLECULE
87R
   44    46     1     0     0
SMALL
abcg2


@<TRIPOS>ATOM
      1 C18         -2.3090     1.9220    -0.6910 ca         1 87R      -0.089500
      2 C22         -1.5870     0.2090     0.8160 ca         1 87R      -0.089500
      3 C19         -3.3520     1.1190    -1.1280 ca         1 87R      -0.098500
      4 C21         -2.6210    -0.6110     0.3870 ca         1 87R      -0.098500
      5 C1           3.4030     0.3670     1.9130 cc         1 87R       0.409500
      6 C2           2.8810     0.4750     0.6150 cc         1 87R      -0.359800
      7 C17         -1.4160     1.4800     0.2790 ca         1 87R      -0.080300
      8 C20         -3.4910    -0.1440    -0.5830 ca         1 87R       0.089100
      9 C3           3.7610    -0.2830    -0.1630 cd         1 87R       0.424500
     10 C6           5.7180    -1.5630     0.3130 cc         1 87R      -0.048000
     11 C8           4.8030    -1.3460    -1.8590 cc         1 87R       0.377900
     12 C7           5.8050    -1.8810    -1.0070 cd         1 87R      -0.176300
     13 C10          6.8970    -2.7460    -1.5500 c3         1 87R      -0.035800
     14 C15         -0.8020     3.1810     2.0110 c3         1 87R      -0.088400
     15 C14         -0.3290     2.4100     0.7750 c3         1 87R       0.163000
     16 C24         -4.3830    -1.7510    -2.0280 c3         1 87R       0.514000
     17 N5           4.4920    -0.3760     1.9770 nd         1 87R      -0.576100
     18 N9           3.8210    -0.5810    -1.4650 nd         1 87R      -0.604000
     19 N4           4.7010    -0.7680     0.7180 na         1 87R       0.120900
     20 N13          0.8970     1.7110     1.0880 ns         1 87R      -0.511900
     21 O12          1.4580     1.3280    -1.0610 o          1 87R      -0.577100
     22 O23         -4.5610    -0.9460    -0.9750 os         1 87R      -0.405100
     23 F25         -3.3930    -2.6280    -1.8470 f          1 87R      -0.109667
     24 F26         -5.5070    -2.4250    -2.2140 f          1 87R      -0.109667
     25 F27         -4.1050    -1.0830    -3.1500 f          1 87R      -0.109667
     26 H1          -2.1900     2.9120    -1.1160 ha         1 87R       0.119500
     27 H2          -0.9080    -0.1620     1.5730 ha         1 87R       0.119500
     28 H3          -4.0450     1.4820    -1.8750 ha         1 87R       0.133000
     29 H4          -2.7530    -1.5950     0.8160 ha         1 87R       0.133000
     30 H6           6.4040    -1.9000     1.0780 h4         1 87R       0.165000
     31 H7           4.8380    -1.5810    -2.9180 h4         1 87R       0.036100
     32 H8           6.4900    -3.5600    -2.1500 hc         1 87R       0.051700
     33 H9           7.5680    -2.1710    -2.1890 hc         1 87R       0.051700
     34 H10          7.4900    -3.1830    -0.7490 hc         1 87R       0.051700
     35 H14         -0.9790     2.4740     2.8280 hc         1 87R       0.048200
     36 H15         -1.7720     3.6240     1.7770 hc         1 87R       0.048200
     37 H16         -0.1210     3.1350    -0.0170 h1         1 87R       0.079700
     38 H17          1.0700     1.4870     2.0540 hn         1 87R       0.308500
     39 C11          1.7000     1.1950     0.1310 c          1 87R       0.651300
     40 C16          0.1660     4.2690     2.4500 c3         1 87R      -0.089100
     41 H5           3.0320     0.8170     2.8220 h4         1 87R       0.045800
     42 H11          1.1410     3.8660     2.7240 hc         1 87R       0.037033
     43 H12          0.3210     5.0010     1.6550 hc         1 87R       0.037033
     44 H13         -0.2230     4.8010     3.3180 hc         1 87R       0.037033
@<TRIPOS>BOND
     1     1     3 ar  
     2     1     7 ar  
     3     1    26 1   
     4     2     4 ar  
     5     2     7 ar  
     6     2    27 1   
     7     3     8 ar  
     8     3    28 1   
     9     4     8 ar  
    10     4    29 1   
    11     5     6 1   
    12     5    17 2   
    13     5    41 1   
    14     6     9 2   
    15     6    39 1   
    16     7    15 1   
    17     8    22 1   
    18     9    18 1   
    19     9    19 1   
    20    10    12 2   
    21    10    19 1   
    22    10    30 1   
    23    11    12 1   
    24    11    18 2   
    25    11    31 1   
    26    12    13 1   
    27    13    32 1   
    28    13    33 1   
    29    13    34 1   
    30    14    15 1   
    31    14    35 1   
    32    14    36 1   
    33    14    40 1   
    34    15    20 1   
    35    15    37 1   
    36    16    22 1   
    37    16    23 1   
    38    16    24 1   
    39    16    25 1   
    40    17    19 1   
    41    20    38 1   
    42    20    39 1   
    43    21    39 2   
    44    40    42 1   
    45    40    43 1   
    46    40    44 1   
@<TRIPOS>SUBSTRUCTURE
     1 87R         1 TEMP              0 ****  ****    0 ROOT
