@<TRIPOS>MOLECULE
87S
   38    40     1     0     0
SMALL
No Charge or Current Charge


@<TRIPOS>ATOM
      1 C4          -1.1450    -2.6500    -0.8630 ca         1 87S      -0.179000
      2 C5          -2.4550     1.2360    -1.0110 ca         1 87S      -0.111500
      3 C6          -2.2960    -0.2430     0.9200 ca         1 87S      -0.111500
      4 C7          -3.6360     1.7930    -0.4870 ca         1 87S      -0.093500
      5 C8          -3.4770     0.3160     1.4430 ca         1 87S      -0.093500
      6 C10          1.0910    -1.8930    -0.1980 ca         1 87S      -0.029000
      7 C13         -0.2260    -1.6050    -0.6400 ca         1 87S       0.148100
      8 C15          2.0920    -0.8460     0.0470 cc         1 87S      -0.126000
      9 C1           0.5200    -4.2750    -0.1750 ca         1 87S      -0.134000
     10 C2          -0.7740    -3.9830    -0.6320 ca         1 87S      -0.076000
     11 C3           1.4440    -3.2380     0.0410 ca         1 87S      -0.090000
     12 C9           2.2550     0.2700    -0.7230 cd         1 87S      -0.108000
     13 C11          3.3700     1.0010    -0.2310 cd         1 87S      -0.243600
     14 C12         -1.7890     0.2130    -0.3150 ca         1 87S       0.098100
     15 C14         -4.1460     1.3300     0.7380 ca         1 87S       0.115000
     16 C16          3.9030     0.3040     0.8360 cc         1 87S      -0.074300
     17 C18          5.0870     0.6180     1.7160 c3         1 87S      -0.029800
     18 N19          3.1230    -0.8460     0.9810 na         1 87S      -0.105000
     19 N20          3.2370     2.8000    -1.8060 nt         1 87S      -0.609000
     20 O21          4.8740     2.8840    -0.3080 o          1 87S      -0.633100
     21 O22         -0.6290    -0.3030    -0.8470 os         1 87S      -0.250200
     22 Cl1         -5.6210     2.0280     1.3940 cl         1 87S      -0.195000
     23 H1          -2.1500    -2.4240    -1.2130 ha         1 87S       0.127000
     24 H3          -1.7770    -1.0190     1.4770 ha         1 87S       0.134500
     25 H4          -4.1540     2.5820    -1.0270 ha         1 87S       0.134000
     26 H5          -3.8710    -0.0350     2.3940 ha         1 87S       0.134000
     27 H6           0.8100    -5.3080     0.0070 ha         1 87S       0.119000
     28 H7          -1.4870    -4.7870    -0.8030 ha         1 87S       0.117000
     29 H8           2.4450    -3.4870     0.3840 ha         1 87S       0.110000
     30 H9           1.6420     0.5410    -1.5770 ha         1 87S       0.136000
     31 H10          6.0080     0.6790     1.1240 hc         1 87S       0.056033
     32 H11          4.9480     1.5750     2.2310 hc         1 87S       0.056033
     33 H12          5.2330    -0.1540     2.4810 hc         1 87S       0.056033
     34 H13          3.2790    -1.5680     1.6750 hn         1 87S       0.343000
     35 H14          2.4360     2.3120    -2.1750 hn         1 87S       0.310500
     36 H15          3.5450     3.6700    -2.2120 hn         1 87S       0.310500
     37 C17          3.9070     2.2900    -0.7550 c          1 87S       0.650700
     38 H2          -2.0570     1.5940    -1.9570 ha         1 87S       0.134500
@<TRIPOS>BOND
     1     1     7 ar  
     2     1    10 ar  
     3     1    23 1   
     4     2     4 ar  
     5     2    14 ar  
     6     2    38 1   
     7     3     5 ar  
     8     3    14 ar  
     9     3    24 1   
    10     4    15 ar  
    11     4    25 1   
    12     5    15 ar  
    13     5    26 1   
    14     6     7 ar  
    15     6     8 1   
    16     6    11 ar  
    17     7    21 1   
    18     8    12 2   
    19     8    18 1   
    20     9    10 ar  
    21     9    11 ar  
    22     9    27 1   
    23    10    28 1   
    24    11    29 1   
    25    12    13 1   
    26    12    30 1   
    27    13    16 2   
    28    13    37 1   
    29    14    21 1   
    30    15    22 1   
    31    16    17 1   
    32    16    18 1   
    33    17    31 1   
    34    17    32 1   
    35    17    33 1   
    36    18    34 1   
    37    19    35 1   
    38    19    36 1   
    39    19    37 1   
    40    20    37 2   
@<TRIPOS>SUBSTRUCTURE
     1 87S         1 TEMP              0 ****  ****    0 ROOT
