@<TRIPOS>MOLECULE
87S
   38    40     1     0     0
SMALL
abcg2


@<TRIPOS>ATOM
      1 C4          -1.1890    -2.4740    -0.3170 ca         1 87S      -0.179000
      2 C5          -2.5920     0.6530    -1.2110 ca         1 87S      -0.111500
      3 C6          -2.4840     0.2250     1.1590 ca         1 87S      -0.111500
      4 C7          -3.9020     1.0890    -1.0740 ca         1 87S      -0.093500
      5 C8          -3.7940     0.6560     1.2990 ca         1 87S      -0.093500
      6 C10          1.1250    -1.7570    -0.1290 ca         1 87S      -0.029000
      7 C13         -0.2440    -1.4610    -0.2250 ca         1 87S       0.148100
      8 C15          2.1390    -0.7130    -0.0160 cc         1 87S      -0.126000
      9 C1           0.5580    -4.1220    -0.2180 ca         1 87S      -0.134000
     10 C2          -0.7870    -3.8030    -0.3100 ca         1 87S      -0.076000
     11 C3           1.4950    -3.1040    -0.1360 ca         1 87S      -0.090000
     12 C9           2.2160     0.5690    -0.5030 cd         1 87S      -0.108000
     13 C11          3.4830     1.0980    -0.1350 cd         1 87S      -0.243600
     14 C12         -1.8900     0.2280    -0.0950 ca         1 87S       0.098100
     15 C14         -4.4930     1.0830     0.1790 ca         1 87S       0.115000
     16 C16          4.1490     0.1140     0.5820 cc         1 87S      -0.074300
     17 C18          5.4840     0.0880     1.2360 c3         1 87S      -0.029800
     18 N19          3.3260    -0.9550     0.6320 na         1 87S      -0.105000
     19 N20          3.2270     3.2750    -1.0880 nt         1 87S      -0.609000
     20 O21          5.1710     2.7480    -0.0820 o          1 87S      -0.633100
     21 O22         -0.5790    -0.1430    -0.2340 os         1 87S      -0.250200
     22 CL1         -6.1300     1.6220     0.3530 cl         1 87S      -0.195000
     23 H1          -2.2430    -2.2410    -0.3930 ha         1 87S       0.127000
     24 H3          -1.9300    -0.1040     2.0290 ha         1 87S       0.134500
     25 H4          -4.4540     1.4230    -1.9420 ha         1 87S       0.134000
     26 H5          -4.2610     0.6610     2.2750 ha         1 87S       0.134000
     27 H6           0.8800    -5.1540    -0.2210 ha         1 87S       0.119000
     28 H7          -1.5340    -4.5820    -0.3850 ha         1 87S       0.117000
     29 H8           2.5450    -3.3660    -0.0930 ha         1 87S       0.110000
     30 H9           1.4580     1.0560    -1.0930 ha         1 87S       0.136000
     31 H10          6.2830     0.2420     0.5110 hc         1 87S       0.056033
     32 H11          5.5770     0.8710     1.9870 hc         1 87S       0.056033
     33 H12          5.6540    -0.8710     1.7240 hc         1 87S       0.056033
     34 H13          3.5440    -1.7990     1.1380 hn         1 87S       0.343000
     35 H14          2.2880     3.0410    -1.3540 hn         1 87S       0.310500
     36 H15          3.5480     4.2030    -1.3070 hn         1 87S       0.310500
     37 C17          4.0350     2.4260    -0.4240 c          1 87S       0.650700
     38 H2          -2.1210     0.6500    -2.1850 ha         1 87S       0.134500
@<TRIPOS>BOND
     1     1     7 ar  
     2     1    10 ar  
     3     1    23 1   
     4     2     4 ar  
     5     2    14 ar  
     6     2    38 1   
     7     3     5 ar  
     8     3    14 ar  
     9     3    24 1   
    10     4    15 ar  
    11     4    25 1   
    12     5    15 ar  
    13     5    26 1   
    14     6     7 ar  
    15     6     8 1   
    16     6    11 ar  
    17     7    21 1   
    18     8    12 2   
    19     8    18 1   
    20     9    10 ar  
    21     9    11 ar  
    22     9    27 1   
    23    10    28 1   
    24    11    29 1   
    25    12    13 1   
    26    12    30 1   
    27    13    16 2   
    28    13    37 1   
    29    14    21 1   
    30    15    22 1   
    31    16    17 1   
    32    16    18 1   
    33    17    31 1   
    34    17    32 1   
    35    17    33 1   
    36    18    34 1   
    37    19    35 1   
    38    19    36 1   
    39    19    37 1   
    40    20    37 2   
@<TRIPOS>SUBSTRUCTURE
     1 87S         1 TEMP              0 ****  ****    0 ROOT
