@<TRIPOS>MOLECULE
87T
   46    49     1     0     0
SMALL
bcc


@<TRIPOS>ATOM
      1 C            6.4970    -3.7710    -1.0090 c3         1 87T       0.045600
      2 N            5.4310    -2.8580    -0.6720 na         1 87T       0.111400
      3 O           -0.3400     1.5580    -1.6750 os         1 87T      -0.251200
      4 C1           5.5510    -1.6090    -0.1910 cc         1 87T      -0.140300
      5 N1           4.1650    -3.2340    -0.7940 nc         1 87T      -0.525800
      6 O1          -5.2350    -1.1000     1.8900 o          1 87T      -0.559100
      7 C2           4.2730    -1.1280     0.0200 cd         1 87T      -0.196100
      8 N2           3.8990     2.0760     1.7240 na         1 87T      -0.167400
      9 C3           3.4510    -2.2020    -0.3820 cd         1 87T       0.316200
     10 N3          -5.3530    -0.3920    -0.2700 ns         1 87T      -0.477100
     11 C4           3.8820     0.1680     0.5470 cd         1 87T      -0.035400
     12 N4          -7.8460    -1.9050     1.9310 n8         1 87T      -0.863800
     13 C5           4.5630     0.9130     1.4750 cc         1 87T      -0.110100
     14 C6           2.7630     2.1190     0.9720 ca         1 87T      -0.051200
     15 C7           2.7150     0.9310     0.2100 ca         1 87T      -0.083800
     16 C8           1.6520     0.7340    -0.6790 ca         1 87T      -0.074000
     17 C9           0.6850     1.7100    -0.7670 ca         1 87T       0.058100
     18 C10          0.7330     2.8810     0.0060 ca         1 87T      -0.118000
     19 C11          1.7770     3.0990     0.8810 ca         1 87T      -0.138000
     20 C12         -1.5360     1.0710    -1.2420 ca         1 87T       0.112100
     21 C13         -1.7750     0.6110     0.0440 ca         1 87T      -0.153000
     22 C14         -3.0260     0.1180     0.3990 ca         1 87T      -0.136000
     23 C15         -4.0610     0.0780    -0.5320 ca         1 87T       0.040600
     24 C16         -3.8060     0.5430    -1.8250 ca         1 87T      -0.136000
     25 C17         -2.5650     1.0350    -2.1790 ca         1 87T      -0.153000
     26 C18         -5.8650    -0.9340     0.8630 c          1 87T       0.670100
     27 C19         -7.3350    -1.3000     0.7250 c3         1 87T       0.070800
     28 H            6.5450    -4.5900    -0.2920 h1         1 87T       0.055033
     29 HA           6.3380    -4.1780    -2.0050 h1         1 87T       0.055033
     30 HB           7.4400    -3.2330    -0.9930 h1         1 87T       0.055033
     31 H1           6.5140    -1.1480    -0.0400 h4         1 87T       0.168000
     32 HN2          4.2020     2.7840     2.3730 hn         1 87T       0.301700
     33 H3           2.3720    -2.2570    -0.3710 h4         1 87T       0.041100
     34 HN3         -5.9920    -0.3160    -1.0480 hn         1 87T       0.310500
     35 HN4         -7.9040    -1.2150     2.6690 hn         1 87T       0.348800
     36 HN4A        -8.7930    -2.2170     1.7630 hn         1 87T       0.348800
     37 H5           5.4850     0.6870     1.9880 h4         1 87T       0.162000
     38 H8           1.5890    -0.1530    -1.2980 ha         1 87T       0.152000
     39 H10         -0.0510     3.6200    -0.0980 ha         1 87T       0.144000
     40 H11          1.8250     4.0050     1.4710 ha         1 87T       0.135000
     41 H13         -0.9950     0.6230     0.7940 ha         1 87T       0.146500
     42 H14         -3.1740    -0.2290     1.4090 ha         1 87T       0.146000
     43 H16         -4.5930     0.5230    -2.5700 ha         1 87T       0.146000
     44 H17         -2.3930     1.3900    -3.1870 ha         1 87T       0.146500
     45 H19         -7.4310    -2.0150    -0.0970 h1         1 87T       0.042200
     46 H19A        -7.8720    -0.3970     0.3970 h1         1 87T       0.042200
@<TRIPOS>BOND
     1     1     2 1   
     2     1    28 1   
     3     1    29 1   
     4     1    30 1   
     5     2     4 1   
     6     2     5 1   
     7     3    17 1   
     8     3    20 1   
     9     4     7 2   
    10     4    31 1   
    11     5     9 2   
    12     6    26 2   
    13     7     9 1   
    14     7    11 1   
    15     8    13 1   
    16     8    14 1   
    17     8    32 1   
    18     9    33 1   
    19    10    23 1   
    20    10    26 1   
    21    10    34 1   
    22    11    13 2   
    23    11    15 1   
    24    12    27 1   
    25    12    35 1   
    26    12    36 1   
    27    13    37 1   
    28    14    15 ar  
    29    14    19 ar  
    30    15    16 ar  
    31    16    17 ar  
    32    16    38 1   
    33    17    18 ar  
    34    18    19 ar  
    35    18    39 1   
    36    19    40 1   
    37    20    21 ar  
    38    20    25 ar  
    39    21    22 ar  
    40    21    41 1   
    41    22    23 ar  
    42    22    42 1   
    43    23    24 ar  
    44    24    25 ar  
    45    24    43 1   
    46    25    44 1   
    47    26    27 1   
    48    27    45 1   
    49    27    46 1   
@<TRIPOS>SUBSTRUCTURE
     1 87T         1 TEMP              0 ****  ****    0 ROOT
