@<TRIPOS>MOLECULE
87T
   46    49     1     0     0
SMALL
No Charge or Current Charge


@<TRIPOS>ATOM
      1 C            7.9110    -2.9810    -0.9740 c3         1 87T       0.074900
      2 N            6.6120    -2.2980    -0.8880 na         1 87T       0.132800
      3 O           -0.4510     0.2650    -1.5310 os         1 87T      -0.251200
      4 C1           6.2900    -1.2490    -0.0310 cc         1 87T      -0.173000
      5 N1           5.5710    -2.6900    -1.7100 nc         1 87T      -0.525800
      6 O1          -6.0690    -0.5970     2.1190 o          1 87T      -0.559100
      7 C2           4.9860    -0.9800    -0.3410 cd         1 87T      -0.130800
      8 N2           3.7860     1.7200     1.7060 na         1 87T      -0.217700
      9 C3           4.5920    -1.8740    -1.3600 cd         1 87T       0.250900
     10 N3          -5.8910    -0.0130    -0.1170 ns         1 87T      -0.151000
     11 C4           4.2080     0.0530     0.3040 cd         1 87T      -0.035400
     12 N4          -9.0100    -0.9310     1.8990 n8         1 87T      -0.974200
     13 C5           4.7990     0.8280     1.2970 cc         1 87T      -0.160100
     14 C6           2.6270     1.4890     0.9840 ca         1 87T      -0.051200
     15 C7           2.8310     0.4640     0.0970 ca         1 87T      -0.083800
     16 C8           1.8100     0.0280    -0.7640 ca         1 87T      -0.056000
     17 C9           0.5570     0.6720    -0.6850 ca         1 87T       0.058100
     18 C10          0.3550     1.7410     0.2260 ca         1 87T      -0.100000
     19 C11          1.4000     2.1570     1.0770 ca         1 87T      -0.120000
     20 C12         -1.7710     0.1960    -1.1450 ca         1 87T       0.112100
     21 C13         -2.1330    -0.2450     0.1420 ca         1 87T      -0.135000
     22 C14         -3.4890    -0.3200     0.5090 ca         1 87T      -0.118000
     23 C15         -4.4990     0.0390    -0.4130 ca         1 87T      -0.052000
     24 C16         -4.1250     0.4630    -1.7030 ca         1 87T      -0.118000
     25 C17         -2.7690     0.5380    -2.0690 ca         1 87T      -0.135000
     26 C18         -6.5950    -0.3130     1.0450 c          1 87T       0.603100
     27 C19         -8.1510    -0.2440     0.8670 c3         1 87T       0.070800
     28 H            7.7800    -4.0470    -0.7520 h1         1 87T       0.055033
     29 HA           8.3190    -2.8660    -1.9850 h1         1 87T       0.055033
     30 HB           8.6080    -2.5440    -0.2490 h1         1 87T       0.055033
     31 H1           6.9880    -0.8210     0.6780 h4         1 87T       0.150000
     32 HN2          3.8860     2.4310     2.4250 hn         1 87T       0.352000
     33 H3           3.6400    -1.9670    -1.8600 h4         1 87T       0.041100
     34 HN3         -6.4820     0.2120    -0.9070 hn         1 87T       0.144000
     35 HN4         -8.8220    -0.5240     2.8250 hn         1 87T       0.404000
     36 HN4A       -10.0000    -0.7070     1.7300 hn         1 87T       0.404000
     37 H5           5.7950     0.8240     1.7260 h4         1 87T       0.212000
     38 H8           1.9560    -0.7780    -1.4720 ha         1 87T       0.134000
     39 H10         -0.6060     2.2480     0.2700 ha         1 87T       0.126000
     40 H11          1.2550     2.9730     1.7810 ha         1 87T       0.117000
     41 H13         -1.3670    -0.5350     0.8560 ha         1 87T       0.128500
     42 H14         -3.7300    -0.6670     1.5090 ha         1 87T       0.128000
     43 H16         -4.8880     0.7370    -2.4300 ha         1 87T       0.128000
     44 H17         -2.4920     0.8650    -3.0680 ha         1 87T       0.128500
     45 H19         -8.3920    -0.6730    -0.1160 h1         1 87T       0.042200
     46 H19A        -8.4240     0.8190     0.8350 h1         1 87T       0.042200
@<TRIPOS>BOND
     1     1     2 1   
     2     1    28 1   
     3     1    29 1   
     4     1    30 1   
     5     2     4 1   
     6     2     5 1   
     7     3    17 1   
     8     3    20 1   
     9     4     7 2   
    10     4    31 1   
    11     5     9 2   
    12     6    26 2   
    13     7     9 1   
    14     7    11 1   
    15     8    13 1   
    16     8    14 1   
    17     8    32 1   
    18     9    33 1   
    19    10    23 1   
    20    10    26 1   
    21    10    34 1   
    22    11    13 2   
    23    11    15 1   
    24    12    27 1   
    25    12    35 1   
    26    12    36 1   
    27    13    37 1   
    28    14    15 ar  
    29    14    19 ar  
    30    15    16 ar  
    31    16    17 ar  
    32    16    38 1   
    33    17    18 ar  
    34    18    19 ar  
    35    18    39 1   
    36    19    40 1   
    37    20    21 ar  
    38    20    25 ar  
    39    21    22 ar  
    40    21    41 1   
    41    22    23 ar  
    42    22    42 1   
    43    23    24 ar  
    44    24    25 ar  
    45    24    43 1   
    46    25    44 1   
    47    26    27 1   
    48    27    45 1   
    49    27    46 1   
@<TRIPOS>SUBSTRUCTURE
     1 87T         1 TEMP              0 ****  ****    0 ROOT
