@<TRIPOS>MOLECULE
87U
   57    60     1     0     0
SMALL
abcg2


@<TRIPOS>ATOM
      1 CAA          9.1610     0.7030     0.9740 c3         1 87U      -0.080100
      2 CAB          6.9240     0.8400     2.0520 c3         1 87U      -0.080100
      3 CAC          7.5990     2.5230     0.3150 c3         1 87U      -0.080100
      4 CAJ         -3.1070     1.8270    -0.9280 ca         1 87U      -0.118000
      5 CAK          7.0720    -1.3420    -1.8600 cc         1 87U       0.408400
      6 CAL         -1.9300     1.1040    -1.0330 ca         1 87U      -0.089000
      7 CAM         -4.1990     1.2940    -0.2610 ca         1 87U      -0.069000
      8 CAN         -8.2820     0.0780    -1.0590 ca         1 87U      -0.167000
      9 CAO         -8.9650    -0.1070     1.2590 ca         1 87U      -0.167000
     10 CAP         -6.9630    -0.0990    -0.6750 ca         1 87U      -0.038500
     11 CAQ         -7.6460    -0.3040     1.6230 ca         1 87U      -0.038500
     12 CAR         -2.9220    -0.6890     0.2160 ca         1 87U      -0.045000
     13 CAW         -5.2350    -0.5560     1.0960 c          1 87U       0.596300
     14 CAX         -9.2580     0.0790    -0.0810 ca         1 87U       0.198000
     15 CAY         -1.8170    -0.1630    -0.4510 ca         1 87U      -0.071800
     16 CAZ          5.8000     0.0830    -0.7780 cc         1 87U      -0.200800
     17 NAS          5.8110    -0.9020    -1.7410 na         1 87U      -0.302500
     18 NAT          7.8740    -0.7320    -1.0240 nd         1 87U      -0.676000
     19 NAU          1.0110     0.7540    -0.0570 ns         1 87U      -0.411100
     20 NAV          3.0210    -0.9940    -0.5190 ns         1 87U      -0.414100
     21 OAD         -5.0080    -1.2370     2.0760 o          1 87U      -0.511100
     22 CBA         -6.6300    -0.2900     0.6660 ca         1 87U      -0.189600
     23 CBB         -4.1110     0.0260     0.3120 ca         1 87U      -0.165600
     24 CBC          7.1120     0.1660    -0.3420 cd         1 87U       0.304300
     25 CBD          1.7740    -1.5200    -0.5650 c          1 87U       0.575200
     26 CBE          2.2620     1.2740     0.0190 c          1 87U       0.580200
     27 CBF          0.6640    -0.5440    -0.4040 cc         1 87U      -0.029600
     28 CBG          3.3590     0.3410    -0.3190 cd         1 87U      -0.060600
     29 CBH          7.6900     1.0500     0.7390 c3         1 87U      -0.069300
     30 H1           9.2840    -0.3310     1.2970 hc         1 87U       0.037367
     31 H2           9.7610     0.8440     0.0760 hc         1 87U       0.037367
     32 H3           9.5650     1.3490     1.7550 hc         1 87U       0.037367
     33 H4           7.3630     1.4460     2.8470 hc         1 87U       0.037367
     34 H5           5.8730     1.1170     1.9680 hc         1 87U       0.037367
     35 H6           6.9690    -0.2040     2.3680 hc         1 87U       0.037367
     36 H7           8.1420     2.7010    -0.6140 hc         1 87U       0.037367
     37 H8           6.5690     2.8510     0.1660 hc         1 87U       0.037367
     38 H9           8.0330     3.1650     1.0850 hc         1 87U       0.037367
     39 H10         -0.7320    -2.0310    -0.7130 ha         1 87U       0.219000
     40 H12          4.7540     1.8410    -0.0980 ha         1 87U       0.227000
     41 H14         -3.1780     2.8070    -1.3790 ha         1 87U       0.122000
     42 H15          7.3540    -2.1000    -2.5740 h5         1 87U       0.059100
     43 H16         -1.1070     1.5210    -1.6020 ha         1 87U       0.120000
     44 H17         -5.1090     1.8750    -0.1780 ha         1 87U       0.125000
     45 H18         -8.5450     0.2120    -2.1000 ha         1 87U       0.137500
     46 H19         -9.7530    -0.1000     1.9990 ha         1 87U       0.137500
     47 H20         -6.1970    -0.1130    -1.4390 ha         1 87U       0.130500
     48 H21         -7.4050    -0.4560     2.6670 ha         1 87U       0.130500
     49 H22         -2.8510    -1.6750     0.6610 ha         1 87U       0.135000
     50 H23          5.0560    -1.1450    -2.3650 hn         1 87U       0.356000
     51 H11          0.2660     1.3880     0.2030 hn         1 87U       0.337500
     52 H13          3.7710    -1.6730    -0.5430 hn         1 87U       0.332500
     53 CAI          4.6190     0.8060    -0.3820 ce         1 87U      -0.106200
     54 CAH         -0.6000    -0.9690    -0.5460 cf         1 87U      -0.158200
     55 OAE          1.5840    -2.7100    -0.7280 o          1 87U      -0.528000
     56 OAF          2.4530     2.4340     0.3360 o          1 87U      -0.528000
     57 FAG        -10.5330     0.2630    -0.4420 f          1 87U      -0.172000
@<TRIPOS>BOND
     1     1    29 1   
     2     1    30 1   
     3     1    31 1   
     4     1    32 1   
     5     2    29 1   
     6     2    33 1   
     7     2    34 1   
     8     2    35 1   
     9     3    29 1   
    10     3    36 1   
    11     3    37 1   
    12     3    38 1   
    13     4     6 ar  
    14     4     7 ar  
    15     4    41 1   
    16     5    17 1   
    17     5    18 2   
    18     5    42 1   
    19     6    15 ar  
    20     6    43 1   
    21     7    23 ar  
    22     7    44 1   
    23     8    10 ar  
    24     8    14 ar  
    25     8    45 1   
    26     9    11 ar  
    27     9    14 ar  
    28     9    46 1   
    29    10    22 ar  
    30    10    47 1   
    31    11    22 ar  
    32    11    48 1   
    33    12    15 ar  
    34    12    23 ar  
    35    12    49 1   
    36    13    21 2   
    37    13    22 1   
    38    13    23 1   
    39    14    57 1   
    40    15    54 1   
    41    16    17 1   
    42    16    24 2   
    43    16    53 1   
    44    17    50 1   
    45    18    24 1   
    46    19    26 1   
    47    19    27 1   
    48    19    51 1   
    49    20    25 1   
    50    20    28 1   
    51    20    52 1   
    52    24    29 1   
    53    25    27 1   
    54    25    55 2   
    55    26    28 1   
    56    26    56 2   
    57    27    54 2   
    58    28    53 2   
    59    39    54 1   
    60    40    53 1   
@<TRIPOS>SUBSTRUCTURE
     1 87U         1 TEMP              0 ****  ****    0 ROOT
