@<TRIPOS>MOLECULE
87U
   57    60     1     0     0
SMALL
No Charge or Current Charge


@<TRIPOS>ATOM
      1 CAA          9.4550     0.7800     0.7130 c3         1 87U      -0.080100
      2 CAB          7.2410     1.2220     1.8020 c3         1 87U      -0.080100
      3 CAC          7.9340     2.5250    -0.2700 c3         1 87U      -0.080100
      4 CAJ         -3.2840     1.9670     0.0670 ca         1 87U      -0.118000
      5 CAK          7.1800    -1.6370    -1.7850 cc         1 87U       0.408400
      6 CAL         -2.0430     1.3140    -0.0150 ca         1 87U      -0.089000
      7 CAM         -4.4470     1.2470     0.3740 ca         1 87U      -0.069000
      8 CAN         -8.2920     0.4400    -1.4550 ca         1 87U      -0.167000
      9 CAO         -9.3870    -0.3970     0.5490 ca         1 87U      -0.167000
     10 CAP         -7.0420     0.0710    -0.9300 ca         1 87U      -0.038500
     11 CAQ         -8.1390    -0.7690     1.0780 ca         1 87U      -0.038500
     12 CAR         -3.1280    -0.7910     0.5160 ca         1 87U      -0.045000
     13 CAW         -5.6200    -0.9460     0.9250 c          1 87U       0.596300
     14 CAX         -9.4600     0.2090    -0.7130 ca         1 87U       0.198000
     15 CAY         -1.9480    -0.0740     0.2230 ca         1 87U      -0.071800
     16 CAZ          5.9500    -0.0660    -0.7820 cc         1 87U      -0.200800
     17 NAS          5.9040    -1.1760    -1.6020 na         1 87U      -0.302500
     18 NAT          8.0360    -0.8900    -1.1140 nd         1 87U      -0.676000
     19 NAU          1.0910     0.8520     0.1770 ns         1 87U      -0.411100
     20 NAV          3.0160    -0.9960    -0.3210 ns         1 87U      -0.414100
     21 OAD         -5.5440    -1.9240     1.6600 o          1 87U      -0.511100
     22 CBA         -6.9530    -0.5260     0.3490 ca         1 87U      -0.189600
     23 CBB         -4.3820    -0.1460     0.5850 ca         1 87U      -0.165600
     24 CBC          7.2940     0.0920    -0.4750 cd         1 87U       0.304300
     25 CBD          1.7170    -1.5030    -0.2120 c          1 87U       0.575200
     26 CBE          2.3720     1.3600     0.0750 c          1 87U       0.580200
     27 CBF          0.6590    -0.4700     0.0440 cc         1 87U      -0.029600
     28 CBG          3.4390     0.3470    -0.2180 cd         1 87U      -0.060600
     29 CBH          7.9650     1.1400     0.4290 c3         1 87U      -0.069300
     30 H1           9.5360    -0.1990     1.2020 hc         1 87U       0.037367
     31 H2          10.0410     0.7500    -0.2130 hc         1 87U       0.037367
     32 H3           9.9210     1.5220     1.3730 hc         1 87U       0.037367
     33 H4           7.7720     1.8960     2.4850 hc         1 87U       0.037367
     34 H5           6.2180     1.5990     1.7090 hc         1 87U       0.037367
     35 H6           7.1950     0.2330     2.2740 hc         1 87U       0.037367
     36 H7           8.4530     2.4830    -1.2360 hc         1 87U       0.037367
     37 H8           6.9090     2.8610    -0.4580 hc         1 87U       0.037367
     38 H9           8.4270     3.2870     0.3460 hc         1 87U       0.037367
     39 H10         -0.8190    -1.9000     0.0980 ha         1 87U       0.219000
     40 H12          4.9650     1.7490    -0.1840 ha         1 87U       0.227000
     41 H14         -3.3440     3.0390    -0.1110 ha         1 87U       0.122000
     42 H15          7.4120    -2.4930    -2.4080 h5         1 87U       0.059100
     43 H16         -1.1750     1.9020    -0.2890 ha         1 87U       0.120000
     44 H17         -5.3940     1.7780     0.4530 ha         1 87U       0.125000
     45 H18         -8.3590     0.9000    -2.4370 ha         1 87U       0.137500
     46 H19        -10.2970    -0.5790     1.1140 ha         1 87U       0.137500
     47 H20         -6.1470     0.2380    -1.5270 ha         1 87U       0.130500
     48 H21         -8.0940    -1.2400     2.0590 ha         1 87U       0.130500
     49 H22         -3.0720    -1.8630     0.6950 ha         1 87U       0.135000
     50 H23          5.0890    -1.5610    -2.0640 hn         1 87U       0.356000
     51 H11          0.4010     1.5470     0.4050 hn         1 87U       0.337500
     52 H13          3.7130    -1.7180    -0.4470 hn         1 87U       0.332500
     53 CAI          4.7680     0.6920    -0.3660 ce         1 87U      -0.106200
     54 CAH         -0.6670    -0.8200     0.1570 cf         1 87U      -0.158200
     55 OAE          1.5110    -2.7020    -0.3270 o          1 87U      -0.528000
     56 OAF          2.5800     2.5560     0.2180 o          1 87U      -0.528000
     57 FAG        -10.6600     0.5640    -1.2210 f          1 87U      -0.172000
@<TRIPOS>BOND
     1     1    29 1   
     2     1    30 1   
     3     1    31 1   
     4     1    32 1   
     5     2    29 1   
     6     2    33 1   
     7     2    34 1   
     8     2    35 1   
     9     3    29 1   
    10     3    36 1   
    11     3    37 1   
    12     3    38 1   
    13     4     6 ar  
    14     4     7 ar  
    15     4    41 1   
    16     5    17 1   
    17     5    18 2   
    18     5    42 1   
    19     6    15 ar  
    20     6    43 1   
    21     7    23 ar  
    22     7    44 1   
    23     8    10 ar  
    24     8    14 ar  
    25     8    45 1   
    26     9    11 ar  
    27     9    14 ar  
    28     9    46 1   
    29    10    22 ar  
    30    10    47 1   
    31    11    22 ar  
    32    11    48 1   
    33    12    15 ar  
    34    12    23 ar  
    35    12    49 1   
    36    13    21 2   
    37    13    22 1   
    38    13    23 1   
    39    14    57 1   
    40    15    54 1   
    41    16    17 1   
    42    16    24 2   
    43    16    53 1   
    44    17    50 1   
    45    18    24 1   
    46    19    26 1   
    47    19    27 1   
    48    19    51 1   
    49    20    25 1   
    50    20    28 1   
    51    20    52 1   
    52    24    29 1   
    53    25    27 1   
    54    25    55 2   
    55    26    28 1   
    56    26    56 2   
    57    27    54 2   
    58    28    53 2   
    59    39    54 1   
    60    40    53 1   
@<TRIPOS>SUBSTRUCTURE
     1 87U         1 TEMP              0 ****  ****    0 ROOT
