@<TRIPOS>MOLECULE
87V
   27    28     1     0     0
SMALL
No Charge or Current Charge


@<TRIPOS>ATOM
      1 C4          -2.3530     1.3010     0.0240 ca         1 87V      -0.107000
      2 C5          -2.6580    -1.1080    -0.0300 ca         1 87V      -0.107000
      3 C6           0.6570     0.7710     0.0410 cc         1 87V      -0.129000
      4 C7          -1.7900     0.0060     0.0020 ca         1 87V      -0.005000
      5 C8           1.9280     0.1480     0.0400 cc         1 87V      -0.239600
      6 C10          1.7350    -1.2130     0.0100 cd         1 87V      -0.073300
      7 C1          -4.5990     0.3630    -0.0170 ca         1 87V      -0.109000
      8 C2          -3.7480     1.4780     0.0140 ca         1 87V      -0.104500
      9 C3          -4.0530    -0.9300    -0.0390 ca         1 87V      -0.104500
     10 C9          -0.3250    -0.1850     0.0120 cd         1 87V      -0.131000
     11 C12          2.7350    -2.3430    -0.0050 c3         1 87V      -0.030800
     12 N13          0.3490    -1.4150    -0.0080 na         1 87V      -0.099000
     13 N14          3.1920     2.1890     0.0950 nt         1 87V      -0.605000
     14 O15          4.3280     0.2850     0.0660 o          1 87V      -0.628100
     15 H1          -1.7160     2.1810     0.0480 ha         1 87V       0.110000
     16 H2          -2.2610    -2.1190    -0.0470 ha         1 87V       0.110000
     17 H3           0.4970     1.8440     0.0620 ha         1 87V       0.128000
     18 H4          -5.6780     0.5000    -0.0250 ha         1 87V       0.115000
     19 H5          -4.1680     2.4810     0.0310 ha         1 87V       0.113500
     20 H6          -4.7110    -1.7970    -0.0640 ha         1 87V       0.113500
     21 H7           3.3700    -2.3170     0.8880 hc         1 87V       0.057033
     22 H8           2.2380    -3.3200    -0.0300 hc         1 87V       0.057033
     23 H9           3.3860    -2.2800    -0.8840 hc         1 87V       0.057033
     24 H10         -0.1000    -2.3230    -0.0310 hn         1 87V       0.346000
     25 H11          2.3000     2.6570     0.0960 hn         1 87V       0.308500
     26 H12          4.0530     2.7150     0.1140 hn         1 87V       0.308500
     27 C11          3.2440     0.8430     0.0670 c          1 87V       0.648700
@<TRIPOS>BOND
     1     1     4 ar  
     2     1     8 ar  
     3     1    15 1   
     4     2     4 ar  
     5     2     9 ar  
     6     2    16 1   
     7     3     5 1   
     8     3    10 2   
     9     3    17 1   
    10     4    10 1   
    11     5     6 2   
    12     5    27 1   
    13     6    11 1   
    14     6    12 1   
    15     7     8 ar  
    16     7     9 ar  
    17     7    18 1   
    18     8    19 1   
    19     9    20 1   
    20    10    12 1   
    21    11    21 1   
    22    11    22 1   
    23    11    23 1   
    24    12    24 1   
    25    13    25 1   
    26    13    26 1   
    27    13    27 1   
    28    14    27 2   
@<TRIPOS>SUBSTRUCTURE
     1 87V         1 TEMP              0 ****  ****    0 ROOT
