@<TRIPOS>MOLECULE
87V
   27    28     1     0     0
SMALL
bcc


@<TRIPOS>ATOM
      1 C4          -2.3820     1.2130     0.4020 ca         1 87V      -0.125000
      2 C5          -2.5820    -1.0530    -0.3630 ca         1 87V      -0.125000
      3 C6           0.6530     0.8700    -0.0110 cc         1 87V      -0.147000
      4 C7          -1.7690     0.0120     0.0330 ca         1 87V      -0.005000
      5 C8           1.9180     0.2230     0.0290 cc         1 87V      -0.239600
      6 C10          1.6790    -1.1410     0.1240 cd         1 87V      -0.022600
      7 C1          -4.5610     0.2770    -0.0210 ca         1 87V      -0.127000
      8 C2          -3.7610     1.3440     0.3700 ca         1 87V      -0.122500
      9 C3          -3.9630    -0.9220    -0.3840 ca         1 87V      -0.122500
     10 C9          -0.3160    -0.1000     0.0540 cd         1 87V      -0.080300
     11 C12          2.5970    -2.3080     0.2170 c3         1 87V      -0.030800
     12 N13          0.3380    -1.3030     0.1290 na         1 87V      -0.150100
     13 N14          3.2930     2.1580    -0.2440 nt         1 87V      -0.672000
     14 O15          4.2760     0.1650     0.1250 o          1 87V      -0.628100
     15 H1          -1.7770     2.0480     0.7320 ha         1 87V       0.128000
     16 H2          -2.1460    -1.9920    -0.6810 ha         1 87V       0.128000
     17 H3           0.4620     1.9290    -0.0930 ha         1 87V       0.146000
     18 H4          -5.6380     0.3790    -0.0410 ha         1 87V       0.133000
     19 H5          -4.2130     2.2830     0.6620 ha         1 87V       0.131500
     20 H6          -4.5720    -1.7610    -0.6950 ha         1 87V       0.131500
     21 H7           3.1860    -2.2770     1.1330 hc         1 87V       0.057033
     22 H8           2.0350    -3.2410     0.2090 hc         1 87V       0.057033
     23 H9           3.2980    -2.3270    -0.6150 hc         1 87V       0.057033
     24 H10         -0.1120    -2.1990     0.2300 hn         1 87V       0.295700
     25 H11          2.4760     2.6910    -0.4810 hn         1 87V       0.308500
     26 H12          4.1820     2.6150    -0.3600 hn         1 87V       0.308500
     27 C11          3.2530     0.8280    -0.0270 c          1 87V       0.715700
@<TRIPOS>BOND
     1     1     4 ar  
     2     1     8 ar  
     3     1    15 1   
     4     2     4 ar  
     5     2     9 ar  
     6     2    16 1   
     7     3     5 1   
     8     3    10 2   
     9     3    17 1   
    10     4    10 1   
    11     5     6 2   
    12     5    27 1   
    13     6    11 1   
    14     6    12 1   
    15     7     8 ar  
    16     7     9 ar  
    17     7    18 1   
    18     8    19 1   
    19     9    20 1   
    20    10    12 1   
    21    11    21 1   
    22    11    22 1   
    23    11    23 1   
    24    12    24 1   
    25    13    25 1   
    26    13    26 1   
    27    13    27 1   
    28    14    27 2   
@<TRIPOS>SUBSTRUCTURE
     1 87V         1 TEMP              0 ****  ****    0 ROOT
