@<TRIPOS>MOLECULE
87X
   32    32     1     0     0
SMALL
abcg2


@<TRIPOS>ATOM
      1 C            4.4780     0.0450    -0.0820 c          1 87X       0.717000
      2 O            4.6190    -0.9990     0.5840 o          1 87X      -0.743500
      3 C12          3.0490     0.4850    -0.4450 c3         1 87X      -0.203400
      4 C13          1.9180    -0.3730     0.0980 c3         1 87X      -0.054400
      5 C14          0.5450     0.1420    -0.3160 c3         1 87X      -0.080400
      6 C15         -0.6060    -0.7370     0.1590 c3         1 87X      -0.072400
      7 C16         -1.9900    -0.2200    -0.2310 c6         1 87X      -0.059700
      8 C21         -3.0570    -1.3060    -0.0880 c6         1 87X      -0.070900
      9 C20         -4.4420    -0.8070    -0.4880 c6         1 87X      -0.072900
     10 C19         -4.8360     0.4350     0.3040 c6         1 87X      -0.072400
     11 C18         -3.7800     1.5280     0.1740 c6         1 87X      -0.072900
     12 C17         -2.3970     1.0180     0.5710 c6         1 87X      -0.070900
     13 O1           5.3970     0.7840    -0.4980 o          1 87X      -0.743500
     14 H1           2.9150     1.5210    -0.1120 hc         1 87X       0.014200
     15 H2           2.9760     0.5330    -1.5380 hc         1 87X       0.014200
     16 H3           2.0370    -1.4050    -0.2470 hc         1 87X       0.037700
     17 H4           1.9750    -0.4160     1.1900 hc         1 87X       0.037700
     18 H5           0.4170     1.1640     0.0590 hc         1 87X       0.023700
     19 H6           0.5000     0.2200    -1.4080 hc         1 87X       0.023700
     20 H7          -0.4670    -1.7430    -0.2560 hc         1 87X       0.035200
     21 H8          -0.5570    -0.8550     1.2480 hc         1 87X       0.035200
     22 H9          -1.9540     0.0650    -1.2930 hc         1 87X       0.041700
     23 H10         -2.7800    -2.1740    -0.6930 hc         1 87X       0.038700
     24 H11         -3.0800    -1.6520     0.9530 hc         1 87X       0.038700
     25 H12         -4.4440    -0.5690    -1.5570 hc         1 87X       0.031200
     26 H13         -5.1850    -1.5970    -0.3470 hc         1 87X       0.031200
     27 H14         -5.8090     0.8050    -0.0300 hc         1 87X       0.029200
     28 H15         -4.9530     0.1680     1.3600 hc         1 87X       0.029200
     29 H16         -3.7510     1.8820    -0.8620 hc         1 87X       0.031200
     30 H17         -4.0520     2.3910     0.7870 hc         1 87X       0.031200
     31 H18         -2.3980     0.7610     1.6370 hc         1 87X       0.038700
     32 H19         -1.6590     1.8150     0.4480 hc         1 87X       0.038700
@<TRIPOS>BOND
     1     1     2 1   
     2     1     3 1   
     3     1    13 1   
     4     3     4 1   
     5     3    14 1   
     6     3    15 1   
     7     4     5 1   
     8     4    16 1   
     9     4    17 1   
    10     5     6 1   
    11     5    18 1   
    12     5    19 1   
    13     6     7 1   
    14     6    20 1   
    15     6    21 1   
    16     7     8 1   
    17     7    12 1   
    18     7    22 1   
    19     8     9 1   
    20     8    23 1   
    21     8    24 1   
    22     9    10 1   
    23     9    25 1   
    24     9    26 1   
    25    10    11 1   
    26    10    27 1   
    27    10    28 1   
    28    11    12 1   
    29    11    29 1   
    30    11    30 1   
    31    12    31 1   
    32    12    32 1   
@<TRIPOS>SUBSTRUCTURE
     1 87X         1 TEMP              0 ****  ****    0 ROOT
