@<TRIPOS>MOLECULE
87X
   32    32     1     0     0
SMALL
No Charge or Current Charge


@<TRIPOS>ATOM
      1 C            4.4890    -0.0840    -0.0790 c          1 87X       0.717000
      2 O            5.0050    -0.8700    -0.8590 o          1 87X      -0.743500
      3 C12          3.1340     0.5380    -0.4630 c3         1 87X      -0.203400
      4 C13          1.9730    -0.3620     0.0260 c3         1 87X      -0.054400
      5 C14          0.5770     0.1990    -0.3260 c3         1 87X      -0.080400
      6 C15         -0.5800    -0.7020     0.1690 c3         1 87X      -0.072400
      7 C16         -2.0130    -0.2480    -0.2490 c6         1 87X      -0.059700
      8 C21         -3.0680    -1.3160     0.1600 c6         1 87X      -0.070900
      9 C20         -4.5000    -0.8990    -0.2550 c6         1 87X      -0.072900
     10 C19         -4.8730     0.4820     0.3350 c6         1 87X      -0.072400
     11 C18         -3.8370     1.5560    -0.0720 c6         1 87X      -0.072900
     12 C17         -2.4010     1.1420     0.3380 c6         1 87X      -0.070900
     13 O1           4.9650     0.1980     1.0100 o          1 87X      -0.743500
     14 H1           2.9980     1.5030     0.0410 hc         1 87X       0.014200
     15 H2           3.0320     0.5920    -1.5540 hc         1 87X       0.014200
     16 H3           2.0820    -1.3610    -0.4160 hc         1 87X       0.037700
     17 H4           2.0470    -0.4860     1.1140 hc         1 87X       0.037700
     18 H5           0.4800     1.1980     0.1160 hc         1 87X       0.023700
     19 H6           0.5000     0.3180    -1.4140 hc         1 87X       0.023700
     20 H7          -0.4030    -1.7150    -0.2140 hc         1 87X       0.035200
     21 H8          -0.5220    -0.7780     1.2620 hc         1 87X       0.035200
     22 H9          -2.0080    -0.1740    -1.3460 hc         1 87X       0.041700
     23 H10         -2.8230    -2.2820    -0.3030 hc         1 87X       0.038700
     24 H11         -3.0340    -1.4760     1.2470 hc         1 87X       0.038700
     25 H12         -4.5720    -0.8650    -1.3510 hc         1 87X       0.031200
     26 H13         -5.2210    -1.6550     0.0820 hc         1 87X       0.031200
     27 H14         -5.8730     0.7780    -0.0100 hc         1 87X       0.029200
     28 H15         -4.9260     0.4140     1.4300 hc         1 87X       0.029200
     29 H16         -3.8780     1.7170    -1.1580 hc         1 87X       0.031200
     30 H17         -4.0940     2.5170     0.3950 hc         1 87X       0.031200
     31 H18         -2.3240     1.1180     1.4340 hc         1 87X       0.038700
     32 H19         -1.7010     1.9130    -0.0080 hc         1 87X       0.038700
@<TRIPOS>BOND
     1     1     2 1   
     2     1     3 1   
     3     1    13 1   
     4     3     4 1   
     5     3    14 1   
     6     3    15 1   
     7     4     5 1   
     8     4    16 1   
     9     4    17 1   
    10     5     6 1   
    11     5    18 1   
    12     5    19 1   
    13     6     7 1   
    14     6    20 1   
    15     6    21 1   
    16     7     8 1   
    17     7    12 1   
    18     7    22 1   
    19     8     9 1   
    20     8    23 1   
    21     8    24 1   
    22     9    10 1   
    23     9    25 1   
    24     9    26 1   
    25    10    11 1   
    26    10    27 1   
    27    10    28 1   
    28    11    12 1   
    29    11    29 1   
    30    11    30 1   
    31    12    31 1   
    32    12    32 1   
@<TRIPOS>SUBSTRUCTURE
     1 87X         1 TEMP              0 ****  ****    0 ROOT
