@<TRIPOS>MOLECULE
87Y
   42    44     1     0     0
SMALL
bcc


@<TRIPOS>ATOM
      1 N2          -2.1110     0.5750     3.1700 ns         1 87Y      -0.520400
      2 C3          -0.8400     1.1230     2.9570 c          1 87Y       0.759700
      3 O8          -0.5460     2.1800     3.5020 o          1 87Y      -0.598500
      4 C7          -0.0310     0.3340     2.0940 cc         1 87Y      -0.211600
      5 N10          1.3020     0.6630     1.9130 ne         1 87Y      -0.427300
      6 C12          1.9880     0.0210     1.0580 c2         1 87Y       0.327300
      7 C15          3.4510     0.3100     0.8970 c3         1 87Y       0.125100
      8 O16          3.8170     1.4160     1.6690 oh         1 87Y      -0.557800
      9 C11          1.3690    -1.0010     0.1060 c6         1 87Y       0.182900
     10 C14          0.8950    -0.2240    -1.1450 c3         1 87Y      -0.101400
     11 C13          2.3370    -2.1170    -0.2730 c3         1 87Y      -0.095100
     12 N9           0.2510    -1.6020     0.8160 nu         1 87Y      -0.736000
     13 C6          -0.5490    -0.8600     1.5980 cd         1 87Y       0.449600
     14 N4          -1.7650    -1.3520     1.8930 nd         1 87Y      -0.773300
     15 C1          -2.5180    -0.6170     2.6750 cc         1 87Y       0.764800
     16 N5          -3.7520    -1.0300     2.9790 nv         1 87Y      -0.941800
     17 C17          0.0640    -1.0480    -2.1300 c3         1 87Y      -0.032100
     18 C18         -0.3410    -0.2230    -3.3200 ca         1 87Y      -0.081300
     19 C19          0.4210    -0.2290    -4.4860 ca         1 87Y      -0.124000
     20 C20          0.0640     0.5570    -5.5740 ca         1 87Y      -0.126500
     21 C21         -1.0620     1.3670    -5.5100 ca         1 87Y      -0.128000
     22 C22         -1.8300     1.3810    -4.3530 ca         1 87Y      -0.126500
     23 C23         -1.4700     0.5930    -3.2680 ca         1 87Y      -0.124000
     24 H2          -2.7320     1.1020     3.7710 hn         1 87Y       0.323500
     25 H152         4.0150    -0.5910     1.1820 h1         1 87Y       0.016200
     26 H151         3.6650     0.4660    -0.1710 h1         1 87Y       0.016200
     27 H16          4.7580     1.5600     1.5400 ho         1 87Y       0.396000
     28 H142         0.3060     0.6410    -0.8240 hc         1 87Y       0.062200
     29 H141         1.7750     0.1760    -1.6570 hc         1 87Y       0.062200
     30 H133         2.7450    -2.6050     0.6120 hc         1 87Y       0.046033
     31 H132         1.8320    -2.8790    -0.8670 hc         1 87Y       0.046033
     32 H131         3.1630    -1.7390    -0.8750 hc         1 87Y       0.046033
     33 H9          -0.1210    -2.4760     0.4740 hn         1 87Y       0.442800
     34 H52         -4.0240    -1.9580     2.7060 hn         1 87Y       0.451300
     35 H51         -4.3040    -0.5760     3.6860 hn         1 87Y       0.451300
     36 H172         0.6270    -1.9210    -2.4670 hc         1 87Y       0.045200
     37 H171        -0.8310    -1.4230    -1.6270 hc         1 87Y       0.045200
     38 H19          1.3000    -0.8610    -4.5450 ha         1 87Y       0.128500
     39 H20          0.6670     0.5340    -6.4730 ha         1 87Y       0.129500
     40 H21         -1.3430     1.9790    -6.3580 ha         1 87Y       0.130000
     41 H22         -2.7130     2.0040    -4.2950 ha         1 87Y       0.129500
     42 H23         -2.0770     0.6060    -2.3700 ha         1 87Y       0.128500
@<TRIPOS>BOND
     1     1     2 1   
     2     1    15 1   
     3     1    24 1   
     4     2     3 2   
     5     2     4 1   
     6     4     5 1   
     7     4    13 2   
     8     5     6 2   
     9     6     7 1   
    10     6     9 1   
    11     7     8 1   
    12     7    25 1   
    13     7    26 1   
    14     8    27 1   
    15     9    10 1   
    16     9    11 1   
    17     9    12 1   
    18    10    17 1   
    19    10    28 1   
    20    10    29 1   
    21    11    30 1   
    22    11    31 1   
    23    11    32 1   
    24    12    13 1   
    25    12    33 1   
    26    13    14 1   
    27    14    15 2   
    28    15    16 1   
    29    16    34 1   
    30    16    35 1   
    31    17    18 1   
    32    17    36 1   
    33    17    37 1   
    34    18    19 ar  
    35    18    23 ar  
    36    19    20 ar  
    37    19    38 1   
    38    20    21 ar  
    39    20    39 1   
    40    21    22 ar  
    41    21    40 1   
    42    22    23 ar  
    43    22    41 1   
    44    23    42 1   
@<TRIPOS>SUBSTRUCTURE
     1 87Y         1 TEMP              0 ****  ****    0 ROOT
