@<TRIPOS>MOLECULE
87Y
   42    44     1     0     0
SMALL
No Charge or Current Charge


@<TRIPOS>ATOM
      1 N2          -1.7300    -0.0330     4.2840 ns         1 87Y      -0.453400
      2 C3          -0.5170     0.4810     4.0130 c          1 87Y       0.617200
      3 O8           0.0780     1.1780     4.8220 o          1 87Y      -0.523000
      4 C7          -0.0200     0.1100     2.6750 cc         1 87Y      -0.211600
      5 N10          1.2350     0.5520     2.2260 ne         1 87Y      -0.427300
      6 C12          1.6900     0.1800     1.0520 c2         1 87Y       0.327300
      7 C15          3.0770     0.6710     0.6130 c3         1 87Y       0.148300
      8 O16          3.0430     2.0150     0.0950 oh         1 87Y      -0.620000
      9 C11          0.9060    -0.7820     0.0900 c6         1 87Y       0.182900
     10 C14          0.7520    -0.1190    -1.3240 c3         1 87Y      -0.101400
     11 C13          1.6670    -2.1370    -0.0220 c3         1 87Y      -0.095100
     12 N9          -0.4480    -1.0680     0.6300 nu         1 87Y      -0.791200
     13 C6          -0.8170    -0.6810     1.8650 cd         1 87Y       0.449600
     14 N4          -2.0480    -1.1650     2.2310 nd         1 87Y      -0.773300
     15 C1          -2.4080    -0.7960     3.4240 cc         1 87Y       0.764800
     16 N5          -3.5790    -1.2340     3.8300 nv         1 87Y      -1.052200
     17 C17         -0.0340    -0.9130    -2.3990 c3         1 87Y      -0.032100
     18 C18         -0.1250    -0.1450    -3.7120 ca         1 87Y      -0.081300
     19 C19          0.8600    -0.3150    -4.7050 ca         1 87Y      -0.106000
     20 C20          0.7790     0.3980    -5.9130 ca         1 87Y      -0.108500
     21 C21         -0.2870     1.2860    -6.1360 ca         1 87Y      -0.110000
     22 C22         -1.2710     1.4620    -5.1480 ca         1 87Y      -0.108500
     23 C23         -1.1900     0.7490    -3.9390 ca         1 87Y      -0.106000
     24 H2          -2.1390     0.2020     5.1720 hn         1 87Y       0.323500
     25 H152         3.7560     0.6270     1.4760 h1         1 87Y       0.016200
     26 H151         3.4940    -0.0030    -0.1440 h1         1 87Y       0.016200
     27 H16          3.9710     2.2730    -0.1000 ho         1 87Y       0.435000
     28 H142         0.2660     0.8570    -1.2020 hc         1 87Y       0.062200
     29 H141         1.7430     0.0960    -1.7410 hc         1 87Y       0.062200
     30 H133         1.8790    -2.5500     0.9720 hc         1 87Y       0.046033
     31 H132         1.0840    -2.8910    -0.5640 hc         1 87Y       0.046033
     32 H131         2.6240    -2.0300    -0.5450 hc         1 87Y       0.046033
     33 H9          -1.0590    -1.7580     0.2020 hn         1 87Y       0.498000
     34 H52         -3.9540    -1.9400     3.2100 hn         1 87Y       0.506500
     35 H51         -3.6650    -1.4490     4.8150 hn         1 87Y       0.506500
     36 H172         0.4500    -1.8810    -2.5740 hc         1 87Y       0.045200
     37 H171        -1.0440    -1.1350    -2.0330 hc         1 87Y       0.045200
     38 H19          1.6890    -0.9990    -4.5390 ha         1 87Y       0.110500
     39 H20          1.5420     0.2620    -6.6770 ha         1 87Y       0.111500
     40 H21         -0.3500     1.8390    -7.0710 ha         1 87Y       0.112000
     41 H22         -2.0950     2.1510    -5.3180 ha         1 87Y       0.111500
     42 H23         -1.9540     0.8920    -3.1780 ha         1 87Y       0.110500
@<TRIPOS>BOND
     1     1     2 1   
     2     1    15 1   
     3     1    24 1   
     4     2     3 2   
     5     2     4 1   
     6     4     5 1   
     7     4    13 2   
     8     5     6 2   
     9     6     7 1   
    10     6     9 1   
    11     7     8 1   
    12     7    25 1   
    13     7    26 1   
    14     8    27 1   
    15     9    10 1   
    16     9    11 1   
    17     9    12 1   
    18    10    17 1   
    19    10    28 1   
    20    10    29 1   
    21    11    30 1   
    22    11    31 1   
    23    11    32 1   
    24    12    13 1   
    25    12    33 1   
    26    13    14 1   
    27    14    15 2   
    28    15    16 1   
    29    16    34 1   
    30    16    35 1   
    31    17    18 1   
    32    17    36 1   
    33    17    37 1   
    34    18    19 ar  
    35    18    23 ar  
    36    19    20 ar  
    37    19    38 1   
    38    20    21 ar  
    39    20    39 1   
    40    21    22 ar  
    41    21    40 1   
    42    22    23 ar  
    43    22    41 1   
    44    23    42 1   
@<TRIPOS>SUBSTRUCTURE
     1 87Y         1 TEMP              0 ****  ****    0 ROOT
