@<TRIPOS>MOLECULE
87Z
   65    67     1     0     0
SMALL
No Charge or Current Charge


@<TRIPOS>ATOM
      1 C2          24.6010   -11.5760    28.2660 c          1 87Z       0.609000
      2 O3          28.2310   -12.7730    30.1980 o          1 87Z      -0.584100
      3 C3          29.0680   -13.4820    30.7340 c          1 87Z       0.591100
      4 C3M         29.9220   -14.4820    29.9670 c3         1 87Z      -0.183100
      5 N3Q         29.3220   -13.4040    32.0800 ns         1 87Z      -0.507900
      6 C3Q         28.5960   -12.5720    33.0700 c6         1 87Z       0.072700
      7 C4Q         28.9070   -13.0890    34.5110 c6         1 87Z       0.126300
      8 O4Q         30.3330   -13.1210    34.7350 oh         1 87Z      -0.730000
      9 C2Q         28.9730   -11.0560    32.9530 c6         1 87Z       0.132300
     10 O2Q         28.6230   -10.5530    31.6480 oh         1 87Z      -0.667000
     11 C1Q         28.3200   -10.2190    34.1200 c6         1 87Z       0.465300
     12 O5Q         28.6470   -10.8140    35.4000 os         1 87Z      -0.460000
     13 C5Q         28.1870   -12.1750    35.5500 c6         1 87Z       0.157300
     14 C6Q         28.4480   -12.5870    37.0230 c3         1 87Z      -0.086100
     15 O3B         26.8960   -10.1420    34.0060 os         1 87Z      -0.601400
     16 PB          26.2390    -8.7080    34.3050 p5         1 87Z       1.464800
     17 O1B         26.9870    -8.0210    35.3990 o          1 87Z      -0.832500
     18 O2B         24.7920    -8.8960    34.6240 o          1 87Z      -0.832500
     19 O3A         26.4440    -8.1000    32.8680 os         1 87Z      -0.731800
     20 PA          26.4340    -6.5250    32.8520 p5         1 87Z       1.463800
     21 O1A         25.4290    -5.8990    33.7620 o          1 87Z      -0.844000
     22 O2A         27.8010    -5.9490    33.0290 o          1 87Z      -0.844000
     23 C5          26.8040    -6.4300    30.2010 c3         1 87Z       0.244600
     24 C4          27.0980    -7.9170    29.8640 c5         1 87Z       0.089300
     25 O4          25.8790    -8.6450    29.6020 os         1 87Z      -0.397000
     26 C8          27.8810    -8.1380    28.5410 c5         1 87Z       0.136300
     27 O6          29.2680    -7.8180    28.6450 oh         1 87Z      -0.715000
     28 C7          27.6430    -9.6600    28.3190 c5         1 87Z      -0.129400
     29 C1          26.2720    -9.9080    29.0380 c5         1 87Z       0.338700
     30 N1          25.2570   -10.3530    28.0440 n          1 87Z      -0.317000
     31 O2          24.7890   -12.2780    29.2450 o          1 87Z      -0.574000
     32 N3          23.7170   -11.9590    27.3090 ns         1 87Z      -0.472500
     33 C6          24.9840    -9.5800    26.9110 cc         1 87Z       0.042600
     34 C9          24.0770   -10.0210    25.9710 cd         1 87Z      -0.326400
     35 C5M         23.7280    -9.2460    24.7200 c3         1 87Z      -0.005900
     36 C10         23.3790   -11.3140    26.1640 c          1 87Z       0.595200
     37 O7          22.5630   -11.7860    25.3880 o          1 87Z      -0.580000
     38 H1          29.6960   -14.4960    28.8950 hc         1 87Z       0.047367
     39 H2          30.9800   -14.2660    30.1550 hc         1 87Z       0.047367
     40 H3          29.8040   -15.4730    30.4200 hc         1 87Z       0.047367
     41 H5          27.5130   -12.6780    32.8960 h1         1 87Z       0.129700
     42 H7          30.5550   -12.2750    35.1870 ho         1 87Z       0.486000
     43 H8          30.0620   -10.9730    33.0710 h1         1 87Z       0.019700
     44 H9          28.4710   -11.3560    31.0840 ho         1 87Z       0.478000
     45 H10         28.7610    -9.2100    34.0680 h2         1 87Z       0.099700
     46 H11         27.1000   -12.2180    35.3810 h1         1 87Z       0.070700
     47 H12         28.1430   -13.6250    37.1980 hc         1 87Z       0.031033
     48 H13         29.5070   -12.4980    37.2910 hc         1 87Z       0.031033
     49 H14         27.8760   -11.9540    37.7110 hc         1 87Z       0.031033
     50 H17         27.7520    -5.9090    30.3840 h1         1 87Z       0.010700
     51 H18         26.3380    -5.9590    29.3260 h1         1 87Z       0.010700
     52 H19         27.6310    -8.3760    30.7060 h1         1 87Z       0.132700
     53 H20         27.4210    -7.5540    27.7330 h1         1 87Z       0.013700
     54 H21         29.6660    -7.9550    27.7530 ho         1 87Z       0.510000
     55 H22         28.4240   -10.2600    28.7980 hc         1 87Z       0.077700
     56 H23         27.6490    -9.9370    27.2590 hc         1 87Z       0.077700
     57 H24         26.3740   -10.6660    29.8260 h2         1 87Z       0.114700
     58 H25         23.2530   -12.8380    27.4700 hn         1 87Z       0.323500
     59 H26         25.5270    -8.6390    26.8720 h4         1 87Z       0.246000
     60 H27         24.2900    -8.3060    24.6600 hc         1 87Z       0.035700
     61 H28         23.9580    -9.8250    23.8180 hc         1 87Z       0.035700
     62 H29         22.6610    -8.9940    24.6950 hc         1 87Z       0.035700
     63 H4          30.0610   -14.0010    32.4350 hn         1 87Z       0.302500
     64 O5          25.9270    -6.3110    31.3350 os         1 87Z      -0.572400
     65 H6          28.5020   -14.1080    34.6040 h1         1 87Z       0.019700
@<TRIPOS>BOND
     1     1    30 1   
     2     1    31 2   
     3     1    32 1   
     4     2     3 2   
     5     3     4 1   
     6     3     5 1   
     7     4    38 1   
     8     4    39 1   
     9     4    40 1   
    10     5     6 1   
    11     5    63 1   
    12     6     7 1   
    13     6     9 1   
    14     6    41 1   
    15     7     8 1   
    16     7    13 1   
    17     7    65 1   
    18     8    42 1   
    19     9    10 1   
    20     9    11 1   
    21     9    43 1   
    22    10    44 1   
    23    11    12 1   
    24    11    15 1   
    25    11    45 1   
    26    12    13 1   
    27    13    14 1   
    28    13    46 1   
    29    14    47 1   
    30    14    48 1   
    31    14    49 1   
    32    15    16 1   
    33    16    17 1   
    34    16    18 1   
    35    16    19 1   
    36    19    20 1   
    37    20    21 1   
    38    20    22 1   
    39    20    64 1   
    40    23    24 1   
    41    23    50 1   
    42    23    51 1   
    43    23    64 1   
    44    24    25 1   
    45    24    26 1   
    46    24    52 1   
    47    25    29 1   
    48    26    27 1   
    49    26    28 1   
    50    26    53 1   
    51    27    54 1   
    52    28    29 1   
    53    28    55 1   
    54    28    56 1   
    55    29    30 1   
    56    29    57 1   
    57    30    33 1   
    58    32    36 1   
    59    32    58 1   
    60    33    34 2   
    61    33    59 1   
    62    34    35 1   
    63    34    36 1   
    64    35    60 1   
    65    35    61 1   
    66    35    62 1   
    67    36    37 2   
@<TRIPOS>SUBSTRUCTURE
     1 87Z         1 TEMP              0 ****  ****    0 ROOT
