@<TRIPOS>MOLECULE
87Z
   65    67     1     0     0
SMALL
bcc


@<TRIPOS>ATOM
      1 C2          24.4380   -11.5740    26.8280 c          1 87Z       0.818500
      2 O3          27.9930   -13.7150    31.1560 o          1 87Z      -0.584100
      3 C3          29.1590   -13.8850    31.4850 c          1 87Z       0.658100
      4 C3M         30.0820   -14.8270    30.7480 c3         1 87Z      -0.183100
      5 N3Q         29.7310   -13.2610    32.5350 ns         1 87Z      -0.574900
      6 C3Q         29.0400   -12.3550    33.4190 c6         1 87Z       0.072700
      7 C4Q         29.2630   -12.7290    34.8820 c6         1 87Z       0.103100
      8 O4Q         30.6560   -12.7610    35.1070 oh         1 87Z      -0.607800
      9 C2Q         29.4620   -10.9000    33.1860 c6         1 87Z       0.109100
     10 O2Q         29.2220   -10.4710    31.8740 oh         1 87Z      -0.544800
     11 C1Q         28.6800    -9.9930    34.1340 c6         1 87Z       0.418900
     12 O5Q         28.8970   -10.3840    35.4560 os         1 87Z      -0.413600
     13 C5Q         28.5370   -11.7200    35.7760 c6         1 87Z       0.134100
     14 C6Q         28.8320   -11.9190    37.2490 c3         1 87Z      -0.086100
     15 O3B         27.3320   -10.0490    33.7740 os         1 87Z      -0.578200
     16 PB          26.3050    -8.7670    33.9730 p5         1 87Z       1.464800
     17 O1B         26.4420    -8.2120    35.3540 o          1 87Z      -0.832500
     18 O2B         24.9980    -9.2410    33.4280 o          1 87Z      -0.832500
     19 O3A         27.0450    -7.7390    32.9190 os         1 87Z      -0.731800
     20 PA          26.4020    -6.3880    32.2340 p5         1 87Z       1.463800
     21 O1A         25.2170    -5.9280    33.0170 o          1 87Z      -0.844000
     22 O2A         27.5660    -5.4980    31.9330 o          1 87Z      -0.844000
     23 C5          26.6450    -7.4150    29.7920 c3         1 87Z       0.221400
     24 C4          26.7880    -8.9180    29.7490 c5         1 87Z       0.066100
     25 O4          25.5070    -9.5290    29.5650 os         1 87Z      -0.350600
     26 C8          27.6300    -9.4320    28.5760 c5         1 87Z       0.113100
     27 O6          29.0110    -9.4520    28.8020 oh         1 87Z      -0.592800
     28 C7          27.0820   -10.8420    28.4300 c5         1 87Z      -0.129400
     29 C1          25.6030   -10.6560    28.7520 c5         1 87Z       0.315500
     30 N1          24.7830   -10.4470    27.5320 n          1 87Z      -0.384000
     31 O2          24.7670   -12.6930    27.1700 o          1 87Z      -0.649500
     32 N3          23.6920   -11.3400    25.7020 ns         1 87Z      -0.606500
     33 C6          24.4140    -9.2050    27.1000 cc         1 87Z       0.092600
     34 C9          23.6980    -8.9790    25.9820 cd         1 87Z      -0.326400
     35 C5M         23.3120    -7.6080    25.5300 c3         1 87Z      -0.005900
     36 C10         23.2830   -10.1190    25.1930 c          1 87Z       0.737700
     37 O7          22.6320   -10.0630    24.1650 o          1 87Z      -0.655500
     38 H1          29.5790   -15.2490    29.8820 hc         1 87Z       0.047367
     39 H2          30.9830   -14.3110    30.4160 hc         1 87Z       0.047367
     40 H3          30.3970   -15.6420    31.4010 hc         1 87Z       0.047367
     41 H5          27.9730   -12.4470    33.2060 h1         1 87Z       0.129700
     42 H7          30.8380   -13.3150    35.8710 ho         1 87Z       0.387000
     43 H8          30.5250   -10.7930    33.4400 h1         1 87Z       0.019700
     44 H9          29.8790   -10.8610    31.2900 ho         1 87Z       0.379000
     45 H10         29.0700    -8.9710    34.0660 h2         1 87Z       0.099700
     46 H11         27.4610   -11.8710    35.6150 h1         1 87Z       0.070700
     47 H12         28.5800   -12.9370    37.5510 hc         1 87Z       0.031033
     48 H13         29.8840   -11.7450    37.4780 hc         1 87Z       0.031033
     49 H14         28.2370   -11.2380    37.8560 hc         1 87Z       0.031033
     50 H17         27.6450    -6.9770    29.8820 h1         1 87Z       0.010700
     51 H18         26.2300    -7.0580    28.8430 h1         1 87Z       0.010700
     52 H19         27.2270    -9.2810    30.6840 h1         1 87Z       0.132700
     53 H20         27.3900    -8.8450    27.6760 h1         1 87Z       0.013700
     54 H21         29.3470    -8.5520    28.7580 ho         1 87Z       0.411000
     55 H22         27.5360   -11.4890    29.1870 hc         1 87Z       0.077700
     56 H23         27.2590   -11.2860    27.4520 hc         1 87Z       0.077700
     57 H24         25.1770   -11.5220    29.2590 h2         1 87Z       0.114700
     58 H25         23.4260   -12.1660    25.1790 hn         1 87Z       0.323500
     59 H26         24.7240    -8.3810    27.7240 h4         1 87Z       0.196000
     60 H27         23.6980    -6.8520    26.2120 hc         1 87Z       0.035700
     61 H28         23.7050    -7.3930    24.5350 hc         1 87Z       0.035700
     62 H29         22.2290    -7.4930    25.4810 hc         1 87Z       0.035700
     63 H4          30.6940   -13.4700    32.7530 hn         1 87Z       0.302500
     64 O5          25.7910    -6.9850    30.8280 os         1 87Z      -0.549200
     65 H6          28.8140   -13.7140    35.0620 h1         1 87Z       0.019700
@<TRIPOS>BOND
     1     1    30 1   
     2     1    31 2   
     3     1    32 1   
     4     2     3 2   
     5     3     4 1   
     6     3     5 1   
     7     4    38 1   
     8     4    39 1   
     9     4    40 1   
    10     5     6 1   
    11     5    63 1   
    12     6     7 1   
    13     6     9 1   
    14     6    41 1   
    15     7     8 1   
    16     7    13 1   
    17     7    65 1   
    18     8    42 1   
    19     9    10 1   
    20     9    11 1   
    21     9    43 1   
    22    10    44 1   
    23    11    12 1   
    24    11    15 1   
    25    11    45 1   
    26    12    13 1   
    27    13    14 1   
    28    13    46 1   
    29    14    47 1   
    30    14    48 1   
    31    14    49 1   
    32    15    16 1   
    33    16    17 1   
    34    16    18 1   
    35    16    19 1   
    36    19    20 1   
    37    20    21 1   
    38    20    22 1   
    39    20    64 1   
    40    23    24 1   
    41    23    50 1   
    42    23    51 1   
    43    23    64 1   
    44    24    25 1   
    45    24    26 1   
    46    24    52 1   
    47    25    29 1   
    48    26    27 1   
    49    26    28 1   
    50    26    53 1   
    51    27    54 1   
    52    28    29 1   
    53    28    55 1   
    54    28    56 1   
    55    29    30 1   
    56    29    57 1   
    57    30    33 1   
    58    32    36 1   
    59    32    58 1   
    60    33    34 2   
    61    33    59 1   
    62    34    35 1   
    63    34    36 1   
    64    35    60 1   
    65    35    61 1   
    66    35    62 1   
    67    36    37 2   
@<TRIPOS>SUBSTRUCTURE
     1 87Z         1 TEMP              0 ****  ****    0 ROOT
