@<TRIPOS>MOLECULE
880
   69    73     1     0     0
SMALL
No Charge or Current Charge


@<TRIPOS>ATOM
      1 N1           1.1840     0.4130     2.7190 na         1 880      -0.146500
      2 C2           0.1600    -0.1120     3.4960 cc         1 880       0.426800
      3 N3          -0.9110    -0.3440     2.7470 nd         1 880      -0.672000
      4 C4          -0.5860     0.0030     1.4510 cd         1 880       0.330500
      5 C5           0.6980     0.5000     1.4310 cc         1 880      -0.253500
      6 C6           2.5570     0.7270     3.1600 c3         1 880       0.064600
      7 C7           3.5310    -0.4500     2.9480 c3         1 880      -0.099400
      8 C10          4.9680    -0.1290     3.4030 c3         1 880      -0.090100
      9 C16          0.2700    -0.3710     4.9910 c6         1 880      -0.085000
     10 C17         -0.1220     0.9010     5.7930 c6         1 880      -0.070400
     11 C18         -0.0580     0.6400     7.3190 c6         1 880       0.158800
     12 N19         -0.8960    -0.5200     7.7050 n7         1 880      -0.858400
     13 C20         -0.5270    -1.7630     6.9850 c6         1 880       0.158800
     14 C21         -0.6130    -1.5680     5.4510 c6         1 880      -0.070400
     15 C35         -1.6030    -0.0700     0.3660 ca         1 880      -0.081500
     16 C36          1.4550     0.7870     0.2170 ca         1 880       0.243500
     17 C37         -1.5130     0.7110    -0.8120 ca         1 880      -0.083000
     18 C38         -2.4920     0.6280    -1.8150 ca         1 880       0.112000
     19 C39         -3.6060    -0.2150    -1.6450 ca         1 880       0.116000
     20 C40         -3.7370    -0.9580    -0.4620 ca         1 880      -0.104000
     21 C41         -2.7510    -0.8780     0.5380 ca         1 880      -0.073000
     22 Cl45        -2.3030     1.6050    -3.2730 cl         1 880      -0.185000
     23 Cl46        -4.8560    -0.3420    -2.8830 cl         1 880      -0.180000
     24 C47          2.1180     2.0150     0.0540 ca         1 880      -0.287000
     25 C48          2.7900     2.2410    -1.1570 ca         1 880       0.151900
     26 N49          2.7920     1.3200    -2.1380 nb         1 880      -0.238000
     27 C50          2.1280     0.1750    -1.8870 ca         1 880       0.384900
     28 N51          1.4710    -0.1410    -0.7600 nb         1 880      -0.239000
     29 N54          2.0770    -0.7900    -2.8840 nu         1 880      -0.906100
     30 C55          2.2800    -0.5380    -4.3200 c6         1 880       0.236500
     31 C56          2.4820    -1.8900    -5.0510 c6         1 880      -0.091900
     32 C57          2.6270    -1.6860    -6.5810 c6         1 880      -0.070900
     33 C58          1.4100    -0.9230    -7.1600 c6         1 880      -0.078400
     34 C59          1.1920     0.4250    -6.4300 c6         1 880      -0.070900
     35 C60          1.0530     0.2170    -4.9010 c6         1 880      -0.091900
     36 H061         2.5440     1.0060     4.2200 h1         1 880       0.063200
     37 H062         2.9200     1.6000     2.6050 h1         1 880       0.063200
     38 H071         3.5450    -0.7220     1.8850 hc         1 880       0.058200
     39 H072         3.1670    -1.3270     3.4970 hc         1 880       0.058200
     40 H101         5.6240    -0.9910     3.2340 hc         1 880       0.037367
     41 H102         5.3700     0.7240     2.8440 hc         1 880       0.037367
     42 H103         4.9900     0.1150     4.4720 hc         1 880       0.037367
     43 H16          1.3090    -0.6260     5.2400 hc         1 880       0.043700
     44 H171         0.5440     1.7350     5.5350 hc         1 880       0.060200
     45 H172        -1.1380     1.2170     5.5200 hc         1 880       0.060200
     46 H181         0.9860     0.4510     7.6130 h1         1 880       0.028700
     47 H182        -0.3980     1.5350     7.8610 h1         1 880       0.028700
     48 H19         -0.7950    -0.6810     8.7160 hn         1 880       0.411000
     49 H201         0.4970    -2.0550     7.2610 h1         1 880       0.028700
     50 H202        -1.2000    -2.5780     7.2910 h1         1 880       0.028700
     51 H211        -1.6620    -1.3990     5.1710 hc         1 880       0.060200
     52 H212        -0.2960    -2.4890     4.9430 hc         1 880       0.060200
     53 H37         -0.6990     1.4120    -0.9590 ha         1 880       0.129000
     54 H40         -4.6030    -1.6000    -0.3200 ha         1 880       0.131000
     55 H41         -2.8750    -1.4700     1.4420 ha         1 880       0.140000
     56 H47          2.0950     2.7770     0.8280 ha         1 880       0.136000
     57 H48          3.3180     3.1730    -1.3510 h4         1 880       0.021100
     58 H54          1.5690    -1.6340    -2.6210 hn         1 880       0.498000
     59 H55          3.1840     0.0710    -4.4810 h1         1 880       0.082700
     60 H561         3.3760    -2.3960    -4.6620 hc         1 880       0.047450
     61 H562         1.6320    -2.5580    -4.8520 hc         1 880       0.047450
     62 H571         3.5490    -1.1270    -6.7940 hc         1 880       0.042450
     63 H572         2.7290    -2.6590    -7.0790 hc         1 880       0.042450
     64 H581         1.5580    -0.7450    -8.2340 hc         1 880       0.041200
     65 H582         0.5070    -1.5430    -7.0690 hc         1 880       0.041200
     66 H591         2.0350     1.0990    -6.6360 hc         1 880       0.042450
     67 H592         0.2930     0.9210    -6.8210 hc         1 880       0.042450
     68 H601         0.1330    -0.3450    -4.6900 hc         1 880       0.047450
     69 H602         0.9410     1.1920    -4.4090 hc         1 880       0.047450
@<TRIPOS>BOND
     1     1     2 1   
     2     1     5 1   
     3     1     6 1   
     4     2     3 2   
     5     2     9 1   
     6     3     4 1   
     7     4     5 2   
     8     4    15 1   
     9     5    16 1   
    10     6     7 1   
    11     6    36 1   
    12     6    37 1   
    13     7     8 1   
    14     7    38 1   
    15     7    39 1   
    16     8    40 1   
    17     8    41 1   
    18     8    42 1   
    19     9    10 1   
    20     9    14 1   
    21     9    43 1   
    22    10    11 1   
    23    10    44 1   
    24    10    45 1   
    25    11    12 1   
    26    11    46 1   
    27    11    47 1   
    28    12    13 1   
    29    12    48 1   
    30    13    14 1   
    31    13    49 1   
    32    13    50 1   
    33    14    51 1   
    34    14    52 1   
    35    15    17 ar  
    36    15    21 ar  
    37    16    24 ar  
    38    16    28 ar  
    39    17    18 ar  
    40    17    53 1   
    41    18    19 ar  
    42    18    22 1   
    43    19    20 ar  
    44    19    23 1   
    45    20    21 ar  
    46    20    54 1   
    47    21    55 1   
    48    24    25 ar  
    49    24    56 1   
    50    25    26 ar  
    51    25    57 1   
    52    26    27 ar  
    53    27    28 ar  
    54    27    29 1   
    55    29    30 1   
    56    29    58 1   
    57    30    31 1   
    58    30    35 1   
    59    30    59 1   
    60    31    32 1   
    61    31    60 1   
    62    31    61 1   
    63    32    33 1   
    64    32    62 1   
    65    32    63 1   
    66    33    34 1   
    67    33    64 1   
    68    33    65 1   
    69    34    35 1   
    70    34    66 1   
    71    34    67 1   
    72    35    68 1   
    73    35    69 1   
@<TRIPOS>SUBSTRUCTURE
     1 880         1 TEMP              0 ****  ****    0 ROOT
