@<TRIPOS>MOLECULE
880
   69    73     1     0     0
SMALL
abcg2


@<TRIPOS>ATOM
      1 N1           1.1660     0.5300     2.6850 na         1 880      -0.146500
      2 C2           0.1470     0.2360     3.5340 cc         1 880       0.426800
      3 N3          -0.9830     0.1060     2.8840 nd         1 880      -0.672000
      4 C4          -0.7020     0.3000     1.5650 cd         1 880       0.330500
      5 C5           0.6410     0.5570     1.4150 cc         1 880      -0.253500
      6 C6           2.5830     0.5790     3.0060 c3         1 880       0.064600
      7 C7           3.2810    -0.7560     2.7770 c3         1 880      -0.099400
      8 C10          4.7680    -0.6570     3.0800 c3         1 880      -0.090100
      9 C16          0.2880     0.0350     5.0060 c6         1 880      -0.085000
     10 C17         -0.7970     0.7850     5.7820 c6         1 880      -0.070400
     11 C18         -0.6660     0.5090     7.2720 c6         1 880       0.158800
     12 N19         -0.7500    -0.9190     7.5240 n7         1 880      -0.858400
     13 C20          0.3280    -1.6410     6.8730 c6         1 880       0.158800
     14 C21          0.2410    -1.4560     5.3650 c6         1 880      -0.070400
     15 C35         -1.7580     0.2400     0.5560 ca         1 880      -0.081500
     16 C36          1.4250     0.8110     0.2020 ca         1 880       0.243500
     17 C37         -1.6650     0.9260    -0.6530 ca         1 880      -0.083000
     18 C38         -2.6670     0.8250    -1.6030 ca         1 880       0.112000
     19 C39         -3.7990     0.0590    -1.3530 ca         1 880       0.116000
     20 C40         -3.9160    -0.6040    -0.1400 ca         1 880      -0.104000
     21 C41         -2.9070    -0.5140     0.8030 ca         1 880      -0.073000
     22 CL45        -2.4890     1.6670    -3.0970 cl         1 880      -0.185000
     23 CL46        -5.0550    -0.0710    -2.5230 cl         1 880      -0.180000
     24 C47          2.1730     1.9740     0.0400 ca         1 880      -0.287000
     25 C48          2.7970     2.1220    -1.1880 ca         1 880       0.151900
     26 N49          2.6920     1.2410    -2.1670 nb         1 880      -0.238000
     27 C50          1.9500     0.1560    -1.9130 ca         1 880       0.384900
     28 N51          1.3270    -0.0990    -0.7550 nb         1 880      -0.239000
     29 N54          1.8230    -0.7770    -2.8750 nu         1 880      -0.906100
     30 C55          2.1790    -0.5740    -4.2650 c6         1 880       0.236500
     31 C56          2.5150    -1.9130    -4.9150 c6         1 880      -0.091900
     32 C57          2.8930    -1.7260    -6.3810 c6         1 880      -0.070900
     33 C58          1.7980    -1.0000    -7.1570 c6         1 880      -0.078400
     34 C59          1.4540     0.3340    -6.5020 c6         1 880      -0.070900
     35 C60          1.0690     0.1410    -5.0380 c6         1 880      -0.091900
     36 H061         2.6880     0.8920     4.0430 h1         1 880       0.063200
     37 H062         3.0520     1.3560     2.4040 h1         1 880       0.063200
     38 H071         3.1320    -1.0720     1.7410 hc         1 880       0.058200
     39 H072         2.8190    -1.5220     3.4050 hc         1 880       0.058200
     40 H101         5.2650    -1.6110     2.9070 hc         1 880       0.037367
     41 H102         5.2510     0.0880     2.4460 hc         1 880       0.037367
     42 H103         4.9440    -0.3730     4.1190 hc         1 880       0.037367
     43 H16          1.2560     0.4270     5.3360 hc         1 880       0.043700
     44 H171        -0.7190     1.8590     5.5960 hc         1 880       0.060200
     45 H172        -1.7820     0.4650     5.4350 hc         1 880       0.060200
     46 H181         0.2820     0.9440     7.6320 h1         1 880       0.028700
     47 H182        -1.4710     1.0110     7.8140 h1         1 880       0.028700
     48 H19         -0.7150    -1.0880     8.5200 hn         1 880       0.411000
     49 H201         1.3240    -1.3090     7.2130 h1         1 880       0.028700
     50 H202         0.2450    -2.7020     7.1200 h1         1 880       0.028700
     51 H211        -0.6940    -1.8860     4.9950 hc         1 880       0.060200
     52 H212         1.0610    -1.9920     4.8800 hc         1 880       0.060200
     53 H37         -0.8200     1.5630    -0.8670 ha         1 880       0.129000
     54 H40         -4.7970    -1.1970     0.0630 ha         1 880       0.131000
     55 H41         -3.0090    -1.0450     1.7400 ha         1 880       0.140000
     56 H47          2.2320     2.7400     0.7990 ha         1 880       0.136000
     57 H48          3.3930     3.0050    -1.3950 h4         1 880       0.021100
     58 H54          1.1560    -1.5070    -2.6750 hn         1 880       0.498000
     59 H55          3.0750     0.0510    -4.2840 h1         1 880       0.082700
     60 H561         3.3280    -2.3960    -4.3670 hc         1 880       0.047450
     61 H562         1.6440    -2.5760    -4.8430 hc         1 880       0.047450
     62 H571         3.8220    -1.1480    -6.4390 hc         1 880       0.042450
     63 H572         3.1040    -2.6960    -6.8370 hc         1 880       0.042450
     64 H581         2.1080    -0.8470    -8.1930 hc         1 880       0.041200
     65 H582         0.9010    -1.6280    -7.1880 hc         1 880       0.041200
     66 H591         2.3190     1.0030    -6.5650 hc         1 880       0.042450
     67 H592         0.6420     0.8260    -7.0410 hc         1 880       0.042450
     68 H601         0.1540    -0.4600    -4.9790 hc         1 880       0.047450
     69 H602         0.8470     1.1000    -4.5640 hc         1 880       0.047450
@<TRIPOS>BOND
     1     1     2 1   
     2     1     5 1   
     3     1     6 1   
     4     2     3 2   
     5     2     9 1   
     6     3     4 1   
     7     4     5 2   
     8     4    15 1   
     9     5    16 1   
    10     6     7 1   
    11     6    36 1   
    12     6    37 1   
    13     7     8 1   
    14     7    38 1   
    15     7    39 1   
    16     8    40 1   
    17     8    41 1   
    18     8    42 1   
    19     9    10 1   
    20     9    14 1   
    21     9    43 1   
    22    10    11 1   
    23    10    44 1   
    24    10    45 1   
    25    11    12 1   
    26    11    46 1   
    27    11    47 1   
    28    12    13 1   
    29    12    48 1   
    30    13    14 1   
    31    13    49 1   
    32    13    50 1   
    33    14    51 1   
    34    14    52 1   
    35    15    17 ar  
    36    15    21 ar  
    37    16    24 ar  
    38    16    28 ar  
    39    17    18 ar  
    40    17    53 1   
    41    18    19 ar  
    42    18    22 1   
    43    19    20 ar  
    44    19    23 1   
    45    20    21 ar  
    46    20    54 1   
    47    21    55 1   
    48    24    25 ar  
    49    24    56 1   
    50    25    26 ar  
    51    25    57 1   
    52    26    27 ar  
    53    27    28 ar  
    54    27    29 1   
    55    29    30 1   
    56    29    58 1   
    57    30    31 1   
    58    30    35 1   
    59    30    59 1   
    60    31    32 1   
    61    31    60 1   
    62    31    61 1   
    63    32    33 1   
    64    32    62 1   
    65    32    63 1   
    66    33    34 1   
    67    33    64 1   
    68    33    65 1   
    69    34    35 1   
    70    34    66 1   
    71    34    67 1   
    72    35    68 1   
    73    35    69 1   
@<TRIPOS>SUBSTRUCTURE
     1 880         1 TEMP              0 ****  ****    0 ROOT
