@<TRIPOS>MOLECULE
881
   89    95     1     0     0
SMALL
bcc


@<TRIPOS>ATOM
      1 NAA         -7.4500    -0.0050     1.8820 nv         1 881      -0.972800
      2 NAB          7.4600     0.0410     1.8920 nv         1 881      -0.972800
      3 CAC        -10.9380    -1.4150    -1.2570 ca         1 881      -0.233300
      4 CAD         10.9320     1.5280    -1.2330 ca         1 881      -0.233300
      5 CAE         -9.7620    -1.7530    -1.9080 ca         1 881      -0.100000
      6 CAF          9.7500     1.8410    -1.8880 ca         1 881      -0.100000
      7 CAG        -10.8500    -0.8210    -0.0060 ca         1 881       0.404200
      8 CAH         10.8510     0.9320     0.0170 ca         1 881       0.404200
      9 CAI         -8.5510    -1.4860    -1.2900 ca         1 881      -0.186300
     10 CAJ          8.5430     1.5490    -1.2740 ca         1 881      -0.186300
     11 CAK         -4.6080    -1.2900     1.9040 ca         1 881      -0.224500
     12 CAL          4.6060     1.3050     1.9170 ca         1 881      -0.224500
     13 CAM         -0.7100    -0.0660     3.7330 cc         1 881      -0.272800
     14 CAN          0.7050     0.0690     3.7360 cc         1 881      -0.272800
     15 CAO         -3.3380    -1.1020     2.4220 ca         1 881      -0.060000
     16 CAP          3.3370     1.1100     2.4330 ca         1 881      -0.060000
     17 CAQ         -4.0290     0.1540     0.0680 ca         1 881      -0.241500
     18 CAR          4.0390    -0.1420     0.0800 ca         1 881      -0.241500
     19 CAS         -0.9200     3.1250    -2.9640 c6         1 881       0.150550
     20 CAT         -3.0230     3.9670    -2.1630 c6         1 881       0.150550
     21 CAU          0.9540    -3.1390    -2.9520 c6         1 881       0.150550
     22 CAV          3.0590    -3.9690    -2.1430 c6         1 881       0.150550
     23 CAW         -0.7300     2.2640    -1.7140 c6         1 881      -0.131650
     24 CAX         -2.9160     3.1390    -0.8800 c6         1 881      -0.131650
     25 CAY          0.7580    -2.2760    -1.7050 c6         1 881      -0.131650
     26 CAZ          2.9460    -3.1380    -0.8630 c6         1 881      -0.131650
     27 NBA         -9.6950    -0.5650     0.5900 nb         1 881      -0.687000
     28 NBB          9.6990     0.6500     0.6090 nb         1 881      -0.687000
     29 NBC         -1.7390     4.3070    -2.7510 n7         1 881      -0.792200
     30 NBD          1.7780    -4.3160    -2.7340 n7         1 881      -0.792200
     31 NBE         -6.1920    -0.8670     0.0880 ne         1 881      -0.705100
     32 OBI          0.0030    -0.0020     1.6410 os         1 881      -0.281800
     33 CBJ         -7.2950    -0.5800     0.6820 cf         1 881       0.625700
     34 CBK          7.2990     0.6210     0.6950 ce         1 881       0.625700
     35 CBL         -4.9660    -0.6610     0.7090 ca         1 881       0.216900
     36 CBM          4.9700     0.6800     0.7220 ca         1 881       0.216900
     37 CBN         -8.5690    -0.8890    -0.0350 ca         1 881       0.361000
     38 CBO          8.5690     0.9520    -0.0200 ca         1 881       0.361000
     39 CBP         -2.7630     0.3600     0.6050 ca         1 881       0.193600
     40 CBQ          2.7740    -0.3570     0.6160 ca         1 881       0.193600
     41 CBR         -1.0890    -0.1070     2.4240 cd         1 881       0.315200
     42 CBS          1.0910     0.1060     2.4290 cd         1 881       0.315200
     43 CBT         -2.3950    -0.2840     1.8030 ca         1 881      -0.184000
     44 CBU          2.3990     0.2870     1.8130 ca         1 881      -0.184000
     45 CBV         -2.0850     1.8890    -1.1370 c6         1 881       0.157100
     46 CBW          2.1090    -1.8930    -1.1250 c6         1 881       0.157100
     47 HNAA        -6.6630     0.2730     2.4430 hn         1 881       0.448050
     48 HNAB        -8.3770     0.1890     2.2200 hn         1 881       0.448050
     49 HNAC         6.6770    -0.2360     2.4570 hn         1 881       0.448050
     50 HNAD         8.3900    -0.1310     2.2350 hn         1 881       0.448050
     51 HAC        -11.9050    -1.6040    -1.7030 ha         1 881       0.144000
     52 HAD         11.8950     1.7370    -1.6750 ha         1 881       0.144000
     53 HAE         -9.7860    -2.2180    -2.8850 ha         1 881       0.142000
     54 HAF          9.7680     2.3070    -2.8650 ha         1 881       0.142000
     55 HAG        -11.7470    -0.5440     0.5350 h4         1 881       0.021100
     56 HAH         11.7520     0.6730     0.5610 h4         1 881       0.021100
     57 HAI         -7.6100    -1.7290    -1.7610 ha         1 881       0.174000
     58 HAJ          7.5990     1.7740    -1.7490 ha         1 881       0.174000
     59 HAK         -5.3020    -1.9500     2.4070 ha         1 881       0.137000
     60 HAL          5.2950     1.9710     2.4210 ha         1 881       0.137000
     61 HAM         -1.3620    -0.1170     4.5900 ha         1 881       0.152500
     62 HAN          1.3540     0.1240     4.5960 ha         1 881       0.152500
     63 HAO         -3.0610    -1.6190     3.3320 ha         1 881       0.135000
     64 HAP          3.0550     1.6260     3.3430 ha         1 881       0.135000
     65 HAQ         -4.3280     0.6300    -0.8560 ha         1 881       0.145500
     66 HAR          4.3410    -0.6150    -0.8440 ha         1 881       0.145500
     67 HAS          0.0520     3.4320    -3.3550 h1         1 881       0.053700
     68 HASA        -1.3940     2.5230    -3.7480 h1         1 881       0.053700
     69 HAT         -3.6000     3.4060    -2.9060 h1         1 881       0.053700
     70 HATA        -3.5780     4.8850    -1.9640 h1         1 881       0.053700
     71 HAU         -0.0150    -3.4510    -3.3430 h1         1 881       0.053700
     72 HAUA         1.4260    -2.5360    -3.7360 h1         1 881       0.053700
     73 HAV          3.6360    -3.4090    -2.8870 h1         1 881       0.053700
     74 HAVA         3.6170    -4.8840    -1.9410 h1         1 881       0.053700
     75 HAW         -0.1610     1.3640    -1.9580 hc         1 881       0.060450
     76 HAWA        -0.1560     2.8220    -0.9680 hc         1 881       0.060450
     77 HAX         -2.4290     3.7350    -0.1000 hc         1 881       0.060450
     78 HAXA        -3.9150     2.8860    -0.5170 hc         1 881       0.060450
     79 HAY          0.1860    -1.3770    -1.9530 hc         1 881       0.060450
     80 HAYA         0.1830    -2.8330    -0.9580 hc         1 881       0.060450
     81 HAZ          2.4620    -3.7330    -0.0820 hc         1 881       0.060450
     82 HAZA         3.9440    -2.8780    -0.5000 hc         1 881       0.060450
     83 HNBC        -1.2500     4.9400    -2.1280 hn         1 881       0.351800
     84 HNBD         1.2900    -4.9500    -2.1110 hn         1 881       0.351800
     85 HBV         -2.6000     1.2470    -1.8640 h1         1 881       0.046700
     86 HBW          2.6230    -1.2490    -1.8510 h1         1 881       0.046700
     87 NBF          6.1930     0.8970     0.1020 nf         1 881      -0.705100
     88 OBG         -1.8380     1.1620     0.0610 os         1 881      -0.311900
     89 OBH          1.8550    -1.1650     0.0710 os         1 881      -0.311900
@<TRIPOS>BOND
     1     1    33 1   
     2     1    47 1   
     3     1    48 1   
     4     2    34 1   
     5     2    49 1   
     6     2    50 1   
     7     3     5 ar  
     8     3     7 ar  
     9     3    51 1   
    10     4     6 ar  
    11     4     8 ar  
    12     4    52 1   
    13     5     9 ar  
    14     5    53 1   
    15     6    10 ar  
    16     6    54 1   
    17     7    27 ar  
    18     7    55 1   
    19     8    28 ar  
    20     8    56 1   
    21     9    37 ar  
    22     9    57 1   
    23    10    38 ar  
    24    10    58 1   
    25    11    15 ar  
    26    11    35 ar  
    27    11    59 1   
    28    12    16 ar  
    29    12    36 ar  
    30    12    60 1   
    31    13    14 1   
    32    13    41 2   
    33    13    61 1   
    34    14    42 2   
    35    14    62 1   
    36    15    43 ar  
    37    15    63 1   
    38    16    44 ar  
    39    16    64 1   
    40    17    35 ar  
    41    17    39 ar  
    42    17    65 1   
    43    18    36 ar  
    44    18    40 ar  
    45    18    66 1   
    46    19    23 1   
    47    19    29 1   
    48    19    67 1   
    49    19    68 1   
    50    20    24 1   
    51    20    29 1   
    52    20    69 1   
    53    20    70 1   
    54    21    25 1   
    55    21    30 1   
    56    21    71 1   
    57    21    72 1   
    58    22    26 1   
    59    22    30 1   
    60    22    73 1   
    61    22    74 1   
    62    23    45 1   
    63    23    75 1   
    64    23    76 1   
    65    24    45 1   
    66    24    77 1   
    67    24    78 1   
    68    25    46 1   
    69    25    79 1   
    70    25    80 1   
    71    26    46 1   
    72    26    81 1   
    73    26    82 1   
    74    27    37 ar  
    75    28    38 ar  
    76    29    83 1   
    77    30    84 1   
    78    31    33 2   
    79    31    35 1   
    80    32    41 1   
    81    32    42 1   
    82    33    37 1   
    83    34    38 1   
    84    34    87 2   
    85    36    87 1   
    86    39    43 ar  
    87    39    88 1   
    88    40    44 ar  
    89    40    89 1   
    90    41    43 1   
    91    42    44 1   
    92    45    85 1   
    93    45    88 1   
    94    46    86 1   
    95    46    89 1   
@<TRIPOS>SUBSTRUCTURE
     1 881         1 TEMP              0 ****  ****    0 ROOT
