@<TRIPOS>MOLECULE
881
   89    95     1     0     0
SMALL
No Charge or Current Charge


@<TRIPOS>ATOM
      1 NAA         -7.9830    -1.6840     1.6680 nv         1 881      -1.083200
      2 NAB          7.8960     1.3710     1.8130 nv         1 881      -1.083200
      3 CAC         -8.0840     1.8740    -1.9680 ca         1 881      -0.150000
      4 CAD          8.0580    -1.2960    -2.5800 ca         1 881      -0.150000
      5 CAE         -7.1250     0.9370    -2.3780 ca         1 881      -0.082000
      6 CAF          7.0660    -0.3220    -2.7700 ca         1 881      -0.082000
      7 CAG         -8.7040     1.7130    -0.7190 ca         1 881       0.338900
      8 CAH          8.7000    -1.3840    -1.3350 ca         1 881       0.338900
      9 CAI         -6.8140    -0.1220    -1.5080 ca         1 881      -0.103000
     10 CAJ          6.7500     0.5230    -1.6940 ca         1 881      -0.103000
     11 CAK         -4.5350    -1.7960     2.4970 ca         1 881      -0.206500
     12 CAL          4.3980     1.9680     2.5960 ca         1 881      -0.206500
     13 CAM         -0.8000    -0.0150     4.1120 cc         1 881      -0.189500
     14 CAN          0.5600     0.3480     4.1410 cc         1 881      -0.189500
     15 CAO         -3.3280    -1.3080     3.0200 ca         1 881      -0.042000
     16 CAP          3.1610     1.5240     3.0880 ca         1 881      -0.042000
     17 CAQ         -3.9050    -1.0200     0.2970 ca         1 881      -0.223500
     18 CAR          3.9460     0.8950     0.4770 ca         1 881      -0.223500
     19 CAS         -1.5830     2.4610    -3.0860 c6         1 881       0.150550
     20 CAT         -3.8170     2.8000    -2.0910 c6         1 881       0.150550
     21 CAU          1.7790    -2.7490    -2.8190 c6         1 881       0.150550
     22 CAV          3.9920    -3.0090    -1.7530 c6         1 881       0.150550
     23 CAW         -1.1230     1.6550    -1.8510 c6         1 881      -0.131650
     24 CAX         -3.4090     2.0060    -0.8310 c6         1 881      -0.131650
     25 CAY          1.2690    -1.9170    -1.6220 c6         1 881      -0.131650
     26 CAZ          3.5300    -2.1860    -0.5300 c6         1 881      -0.131650
     27 NBA         -8.4120     0.6940     0.1240 nb         1 881      -0.687000
     28 NBB          8.3980    -0.5750    -0.2920 nb         1 881      -0.687000
     29 NBC         -2.6350     3.4370    -2.7170 n7         1 881      -0.847400
     30 NBD          2.8420    -3.6900    -2.3940 n7         1 881      -0.847400
     31 NBE         -6.0540    -2.1080     0.6300 ne         1 881      -0.705100
     32 OBI         -0.0370     0.0280     1.9780 os         1 881      -0.193000
     33 CBJ         -7.1010    -1.3520     0.7030 cf         1 881       0.625700
     34 CBK          7.0550     1.2690     0.7360 ce         1 881       0.625700
     35 CBL         -4.8260    -1.6540     1.1360 ca         1 881       0.216900
     36 CBM          4.7900     1.6580     1.2910 ca         1 881       0.216900
     37 CBN         -7.4620    -0.2240    -0.2530 ca         1 881       0.295700
     38 CBO          7.4190     0.3710    -0.4560 ca         1 881       0.295700
     39 CBP         -2.7050    -0.4840     0.8140 ca         1 881       0.193600
     40 CBQ          2.7130     0.4100     0.9660 ca         1 881       0.193600
     41 CBR         -1.1330    -0.1560     2.7900 cd         1 881       0.205500
     42 CBS          0.9950     0.3210     2.8420 cd         1 881       0.205500
     43 CBT         -2.3920    -0.6570     2.1890 ca         1 881      -0.184000
     44 CBU          2.2950     0.7540     2.2800 ca         1 881      -0.184000
     45 CBV         -2.3200     0.9490    -1.1730 c6         1 881       0.180300
     46 CBW          2.4340    -1.1630    -0.9390 c6         1 881       0.180300
     47 HNAA        -7.9080    -2.6020     2.0880 hn         1 881       0.503250
     48 HNAB        -8.8960    -1.2410     1.6560 hn         1 881       0.503250
     49 HNAC         7.8350     2.2570     2.3000 hn         1 881       0.503250
     50 HNAD         8.8270     0.9960     1.6620 hn         1 881       0.503250
     51 HAC         -8.3560     2.7090    -2.6080 ha         1 881       0.126000
     52 HAD          8.3370    -1.9710    -3.3850 ha         1 881       0.126000
     53 HAE         -6.6380     1.0240    -3.3480 ha         1 881       0.124000
     54 HAF          6.5590    -0.2200    -3.7280 ha         1 881       0.124000
     55 HAG         -9.4570     2.4240    -0.3790 h4         1 881       0.021100
     56 HAH          9.4790    -2.1260    -1.1640 h4         1 881       0.021100
     57 HAI         -6.0950    -0.8750    -1.8140 ha         1 881       0.156000
     58 HAJ          6.0030     1.3020    -1.8200 ha         1 881       0.156000
     59 HAK         -5.2470    -2.2870     3.1550 ha         1 881       0.119000
     60 HAL          5.0520     2.5580     3.2330 ha         1 881       0.119000
     61 HAM         -1.4450    -0.1310     4.9760 ha         1 881       0.134500
     62 HAN          1.1370     0.5800     5.0300 ha         1 881       0.134500
     63 HAO         -3.1250    -1.4480     4.0790 ha         1 881       0.117000
     64 HAP          2.8750     1.7950     4.1020 ha         1 881       0.117000
     65 HAQ         -4.1370    -0.9300    -0.7550 ha         1 881       0.127500
     66 HAR          4.2640     0.6700    -0.5300 ha         1 881       0.127500
     67 HAS         -0.7230     2.9900    -3.5230 h1         1 881       0.053700
     68 HASA        -1.9700     1.7710    -3.8520 h1         1 881       0.053700
     69 HAT         -4.2980     2.1220    -2.8130 h1         1 881       0.053700
     70 HATA        -4.5550     3.5700    -1.8200 h1         1 881       0.053700
     71 HAU          0.9420    -3.3100    -3.2630 h1         1 881       0.053700
     72 HAUA         2.1720    -2.0740    -3.5950 h1         1 881       0.053700
     73 HAV          4.4810    -2.3440    -2.4810 h1         1 881       0.053700
     74 HAVA         4.7370    -3.7560    -1.4370 h1         1 881       0.053700
     75 HAW         -0.3750     0.9140    -2.1580 hc         1 881       0.060450
     76 HAWA        -0.6270     2.3220    -1.1340 hc         1 881       0.060450
     77 HAX         -3.0310     2.6950    -0.0630 hc         1 881       0.060450
     78 HAXA        -4.3020     1.5300    -0.4090 hc         1 881       0.060450
     79 HAY          0.5110    -1.2050    -1.9680 hc         1 881       0.060450
     80 HAYA         0.7720    -2.5740    -0.8960 hc         1 881       0.060450
     81 HAZ          3.1410    -2.8590     0.2460 hc         1 881       0.060450
     82 HAZA         4.4010    -1.6820    -0.0930 hc         1 881       0.060450
     83 HNBC        -2.2350     4.1060    -2.0480 hn         1 881       0.407000
     84 HNBD         2.4380    -4.3490    -1.7160 hn         1 881       0.407000
     85 HBV         -2.7250     0.2140    -1.8830 h1         1 881       0.046700
     86 HBW          2.8420    -0.4470    -1.6670 h1         1 881       0.046700
     87 NBF          6.0480     2.0860     0.8150 nf         1 881      -0.705100
     88 OBG         -1.8570     0.2590     0.0110 os         1 881      -0.335100
     89 OBH          1.9250    -0.4370     0.2030 os         1 881      -0.335100
@<TRIPOS>BOND
     1     1    33 1   
     2     1    47 1   
     3     1    48 1   
     4     2    34 1   
     5     2    49 1   
     6     2    50 1   
     7     3     5 ar  
     8     3     7 ar  
     9     3    51 1   
    10     4     6 ar  
    11     4     8 ar  
    12     4    52 1   
    13     5     9 ar  
    14     5    53 1   
    15     6    10 ar  
    16     6    54 1   
    17     7    27 ar  
    18     7    55 1   
    19     8    28 ar  
    20     8    56 1   
    21     9    37 ar  
    22     9    57 1   
    23    10    38 ar  
    24    10    58 1   
    25    11    15 ar  
    26    11    35 ar  
    27    11    59 1   
    28    12    16 ar  
    29    12    36 ar  
    30    12    60 1   
    31    13    14 1   
    32    13    41 2   
    33    13    61 1   
    34    14    42 2   
    35    14    62 1   
    36    15    43 ar  
    37    15    63 1   
    38    16    44 ar  
    39    16    64 1   
    40    17    35 ar  
    41    17    39 ar  
    42    17    65 1   
    43    18    36 ar  
    44    18    40 ar  
    45    18    66 1   
    46    19    23 1   
    47    19    29 1   
    48    19    67 1   
    49    19    68 1   
    50    20    24 1   
    51    20    29 1   
    52    20    69 1   
    53    20    70 1   
    54    21    25 1   
    55    21    30 1   
    56    21    71 1   
    57    21    72 1   
    58    22    26 1   
    59    22    30 1   
    60    22    73 1   
    61    22    74 1   
    62    23    45 1   
    63    23    75 1   
    64    23    76 1   
    65    24    45 1   
    66    24    77 1   
    67    24    78 1   
    68    25    46 1   
    69    25    79 1   
    70    25    80 1   
    71    26    46 1   
    72    26    81 1   
    73    26    82 1   
    74    27    37 ar  
    75    28    38 ar  
    76    29    83 1   
    77    30    84 1   
    78    31    33 2   
    79    31    35 1   
    80    32    41 1   
    81    32    42 1   
    82    33    37 1   
    83    34    38 1   
    84    34    87 2   
    85    36    87 1   
    86    39    43 ar  
    87    39    88 1   
    88    40    44 ar  
    89    40    89 1   
    90    41    43 1   
    91    42    44 1   
    92    45    85 1   
    93    45    88 1   
    94    46    86 1   
    95    46    89 1   
@<TRIPOS>SUBSTRUCTURE
     1 881         1 TEMP              0 ****  ****    0 ROOT
