@<TRIPOS>MOLECULE
882
   75    78     1     0     0
SMALL
abcg2


@<TRIPOS>ATOM
      1 N1          -0.7150     0.8950    -1.0940 na         1 882       0.047000
      2 C4           0.2250    -0.1010    -1.1830 cc         1 882      -0.110300
      3 C5          -0.3760    -1.2950    -0.8420 cd         1 882      -0.112000
      4 C6          -0.4780     2.2730    -1.5480 c3         1 882       0.077300
      5 C7           1.6630     0.1470    -1.4980 c3         1 882      -0.019100
      6 C8           2.4280     0.7640    -0.3250 c3         1 882      -0.113400
      7 C10          4.6040     1.5970     0.6000 c3         1 882      -0.147400
      8 C13         -1.4430     2.6870    -2.6510 c3         1 882      -0.110600
      9 C15          1.5440    -4.4230    -1.7340 ca         1 882      -0.152000
     10 C17         -3.9520     3.7050     1.8810 ca         1 882      -0.152500
     11 C20         -4.8870     4.6250     2.3220 ca         1 882      -0.084000
     12 C21          0.2350    -3.3260     0.4570 ca         1 882      -0.076000
     13 C22         -4.5710    -2.6280     1.3520 ca         1 882      -0.152500
     14 C24          0.8310    -4.5730     0.5700 ca         1 882      -0.152000
     15 C26         -5.5210     2.8760     0.2510 ca         1 882      -0.152500
     16 C28         -4.6990    -3.8080     0.6460 ca         1 882       0.164000
     17 O7           8.8480     2.8820     2.5110 o          1 882      -0.734000
     18 O6           8.7060     0.8180     1.6920 o          1 882      -0.734000
     19 C35          6.6930     2.0610     1.9170 c3         1 882      -0.237400
     20 C11          6.1280     1.5130     0.6130 c3         1 882       0.186300
     21 O3           6.7250     2.1450    -0.5030 oh         1 882      -0.635000
     22 C9           3.9070     1.0060    -0.6250 c3         1 882       0.169300
     23 O4           4.0720     1.7920    -1.7880 oh         1 882      -0.648000
     24 C27          0.2780    -2.6080    -0.7390 ca         1 882      -0.015000
     25 C30          1.4780    -5.0990    -0.5320 ca         1 882       0.167000
     26 F1           2.0600    -6.3060    -0.4300 f          1 882      -0.183000
     27 C18          0.9340    -3.1800    -1.8290 ca         1 882      -0.076000
     28 C14         -0.4350     3.2950    -0.4160 c3         1 882      -0.110600
     29 C2          -1.9110     0.3390    -0.7120 cc         1 882      -0.240600
     30 C1          -1.7380    -1.0160    -0.5470 cd         1 882      -0.046000
     31 C31         -2.7640    -1.9790    -0.1300 ca         1 882      -0.014000
     32 C25         -3.5960    -1.7230     0.9600 ca         1 882      -0.070000
     33 C19         -3.8890    -4.1060    -0.4330 ca         1 882      -0.152500
     34 C16         -2.9260    -3.1850    -0.8140 ca         1 882      -0.070000
     35 C3          -3.2080     1.0560    -0.5750 c          1 882       0.649700
     36 O1          -4.1490     0.8170    -1.3080 o          1 882      -0.560100
     37 N2          -3.2480     1.9310     0.4630 ns         1 882      -0.150000
     38 C32         -4.2580     2.8220     0.8420 ca         1 882      -0.018000
     39 C23         -6.4470     3.8080     0.7030 ca         1 882      -0.084000
     40 C29         -6.1440     4.6850     1.7340 ca         1 882      -0.141000
     41 H6           0.5140     2.2490    -1.9920 h1         1 882       0.075700
     42 H71          2.1220    -0.8110    -1.7480 hc         1 882       0.065200
     43 H72          1.7680     0.7640    -2.3920 hc         1 882       0.065200
     44 H81          1.9670     1.7090    -0.0180 hc         1 882       0.042200
     45 H82          2.3480     0.0950     0.5350 hc         1 882       0.042200
     46 H101         4.2390     1.0710     1.4880 hc         1 882       0.034700
     47 H102         4.2850     2.6410     0.7300 hc         1 882       0.034700
     48 H131        -2.4490     2.8810    -2.2810 hc         1 882       0.050367
     49 H132        -1.0870     3.6140    -3.1010 hc         1 882       0.050367
     50 H133        -1.5010     1.9320    -3.4350 hc         1 882       0.050367
     51 H15          2.0510    -4.8590    -2.5840 ha         1 882       0.130000
     52 H17         -2.9740     3.6710     2.3470 ha         1 882       0.129500
     53 H20         -4.6290     5.2980     3.1290 ha         1 882       0.112000
     54 H21         -0.2660    -2.9020     1.3170 ha         1 882       0.120000
     55 H22         -5.2100    -2.4210     2.2000 ha         1 882       0.127500
     56 H24          0.7970    -5.1230     1.5020 ha         1 882       0.130000
     57 H26         -5.7900     2.2020    -0.5450 ha         1 882       0.129500
     58 H351         6.2290     1.5220     2.7520 hc         1 882       0.017200
     59 H352         6.4020     3.1110     2.0370 hc         1 882       0.017200
     60 H11          6.4170     0.4600     0.5350 h1         1 882       0.087700
     61 HO3          6.4030     3.0510    -0.5420 ho         1 882       0.414000
     62 H9           4.3710     0.0410    -0.8610 h1         1 882       0.083700
     63 HO4          3.7440     2.6780    -1.6000 ho         1 882       0.424000
     64 H18          0.9590    -2.6540    -2.7750 ha         1 882       0.120000
     65 H141         0.1290     2.9280     0.4410 hc         1 882       0.050367
     66 H142         0.0580     4.1990    -0.7740 hc         1 882       0.050367
     67 H143        -1.4290     3.5840    -0.0800 hc         1 882       0.050367
     68 H25         -3.4770    -0.8110     1.5320 ha         1 882       0.120000
     69 H19         -4.0080    -5.0370    -0.9700 ha         1 882       0.127500
     70 H16         -2.2970    -3.4090    -1.6650 ha         1 882       0.120000
     71 HN2         -2.4290     1.9410     1.0530 hn         1 882       0.159000
     72 H23         -7.4240     3.8390     0.2380 ha         1 882       0.112000
     73 H29         -6.8760     5.4030     2.0770 ha         1 882       0.112000
     74 C36          8.2190     1.9110     2.0410 c          1 882       0.727000
     75 F2          -5.6350    -4.6960     1.0240 f          1 882      -0.187000
@<TRIPOS>BOND
     1     1     2 1   
     2     1     4 1   
     3     1    29 1   
     4     2     3 2   
     5     2     5 1   
     6     3    24 1   
     7     3    30 1   
     8     4     8 1   
     9     4    28 1   
    10     4    41 1   
    11     5     6 1   
    12     5    42 1   
    13     5    43 1   
    14     6    22 1   
    15     6    44 1   
    16     6    45 1   
    17     7    20 1   
    18     7    22 1   
    19     7    46 1   
    20     7    47 1   
    21     8    48 1   
    22     8    49 1   
    23     8    50 1   
    24     9    25 ar  
    25     9    27 ar  
    26     9    51 1   
    27    10    11 ar  
    28    10    38 ar  
    29    10    52 1   
    30    11    40 ar  
    31    11    53 1   
    32    12    14 ar  
    33    12    24 ar  
    34    12    54 1   
    35    13    16 ar  
    36    13    32 ar  
    37    13    55 1   
    38    14    25 ar  
    39    14    56 1   
    40    15    38 ar  
    41    15    39 ar  
    42    15    57 1   
    43    16    33 ar  
    44    16    75 1   
    45    17    74 1   
    46    18    74 1   
    47    19    20 1   
    48    19    58 1   
    49    19    59 1   
    50    19    74 1   
    51    20    21 1   
    52    20    60 1   
    53    21    61 1   
    54    22    23 1   
    55    22    62 1   
    56    23    63 1   
    57    24    27 ar  
    58    25    26 1   
    59    27    64 1   
    60    28    65 1   
    61    28    66 1   
    62    28    67 1   
    63    29    30 2   
    64    29    35 1   
    65    30    31 1   
    66    31    32 ar  
    67    31    34 ar  
    68    32    68 1   
    69    33    34 ar  
    70    33    69 1   
    71    34    70 1   
    72    35    36 2   
    73    35    37 1   
    74    37    38 1   
    75    37    71 1   
    76    39    40 ar  
    77    39    72 1   
    78    40    73 1   
@<TRIPOS>SUBSTRUCTURE
     1 882         1 TEMP              0 ****  ****    0 ROOT
