@<TRIPOS>MOLECULE
882
   75    78     1     0     0
SMALL
No Charge or Current Charge


@<TRIPOS>ATOM
      1 N1          -0.7930     0.8790    -0.8590 na         1 882       0.047000
      2 C4           0.1910    -0.1140    -1.0300 cc         1 882      -0.110300
      3 C5          -0.4140    -1.3170    -0.7570 cd         1 882      -0.112000
      4 C6          -0.5950     2.2900    -1.3220 c3         1 882       0.077300
      5 C7           1.6600     0.1510    -1.3390 c3         1 882      -0.019100
      6 C8           2.4020     0.9170    -0.2150 c3         1 882      -0.113400
      7 C10          4.6470     1.6670     0.7910 c3         1 882      -0.147400
      8 C13         -1.5840     2.7320    -2.4280 c3         1 882      -0.110600
      9 C15          1.6000    -4.2520    -2.1130 ca         1 882      -0.152000
     10 C17         -3.9280     4.2120     1.5270 ca         1 882      -0.152500
     11 C20         -4.8820     5.1840     1.8740 ca         1 882      -0.084000
     12 C21          0.0390    -3.6190     0.1330 ca         1 882      -0.076000
     13 C22         -4.3240    -3.0840     1.5650 ca         1 882      -0.152500
     14 C24          0.6320    -4.8890     0.0240 ca         1 882      -0.152000
     15 C26         -5.5960     3.0430     0.2020 ca         1 882      -0.152500
     16 C28         -4.4460    -4.2370     0.7760 ca         1 882       0.164000
     17 O7           9.1700     2.5750     1.6400 o          1 882      -0.734000
     18 O6           8.5960     0.7510     2.6290 o          1 882      -0.734000
     19 C35          6.8480     2.2180     2.0070 c3         1 882      -0.237400
     20 C11          6.1940     1.5610     0.7700 c3         1 882       0.186300
     21 O3           6.6670     2.1910    -0.4180 oh         1 882      -0.635000
     22 C9           3.9370     0.9810    -0.4030 c3         1 882       0.169300
     23 O4           4.2310     1.7070    -1.6040 oh         1 882      -0.648000
     24 C27          0.2240    -2.6480    -0.8760 ca         1 882      -0.015000
     25 C30          1.4120    -5.2010    -1.0980 ca         1 882       0.167000
     26 F1           1.9800    -6.4220    -1.2050 f          1 882      -0.183000
     27 C18          1.0070    -2.9810    -2.0030 ca         1 882      -0.076000
     28 C14         -0.4190     3.3390    -0.1950 c3         1 882      -0.110600
     29 C2          -2.0020     0.2830    -0.4160 cc         1 882      -0.240600
     30 C1          -1.7840    -1.0850    -0.4590 cd         1 882      -0.046000
     31 C31         -2.7220    -2.1520    -0.0360 ca         1 882      -0.014000
     32 C25         -3.4630    -2.0470     1.1620 ca         1 882      -0.070000
     33 C19         -3.7100    -4.3620    -0.4100 ca         1 882      -0.152500
     34 C16         -2.8490    -3.3260    -0.8120 ca         1 882      -0.070000
     35 C3          -3.3370     0.8900    -0.1060 c          1 882       0.649700
     36 O1          -4.4000     0.2920    -0.2200 o          1 882      -0.560100
     37 N2          -3.2670     2.1860     0.3680 ns         1 882      -0.150000
     38 C32         -4.2770     3.1300     0.6970 ca         1 882      -0.018000
     39 C23         -6.5510     4.0150     0.5480 ca         1 882      -0.084000
     40 C29         -6.1950     5.0850     1.3860 ca         1 882      -0.141000
     41 H6           0.3700     2.2900    -1.8350 h1         1 882       0.075700
     42 H71          2.1980    -0.7910    -1.4740 hc         1 882       0.065200
     43 H72          1.7600     0.6800    -2.2940 hc         1 882       0.065200
     44 H81          2.0090     1.9350    -0.1280 hc         1 882       0.042200
     45 H82          2.1880     0.4170     0.7370 hc         1 882       0.042200
     46 H101         4.2870     1.2010     1.7170 hc         1 882       0.034700
     47 H102         4.3480     2.7220     0.8410 hc         1 882       0.034700
     48 H131        -2.6060     2.8500    -2.0550 hc         1 882       0.050367
     49 H132        -1.2710     3.6940    -2.8530 hc         1 882       0.050367
     50 H133        -1.6000     1.9960    -3.2400 hc         1 882       0.050367
     51 H15          2.1970    -4.5030    -2.9860 ha         1 882       0.130000
     52 H17         -2.9160     4.3000     1.9150 ha         1 882       0.129500
     53 H20         -4.6040     6.0140     2.5210 ha         1 882       0.112000
     54 H21         -0.5500    -3.3810     1.0150 ha         1 882       0.120000
     55 H22         -4.8890    -2.9970     2.4890 ha         1 882       0.127500
     56 H24          0.4890    -5.6280     0.8080 ha         1 882       0.130000
     57 H26         -5.8950     2.2380    -0.4640 ha         1 882       0.129500
     58 H351         6.3090     1.8020     2.8670 hc         1 882       0.017200
     59 H352         6.7320     3.3040     1.9030 hc         1 882       0.017200
     60 H11          6.4560     0.4920     0.7640 h1         1 882       0.087700
     61 HO3          5.9210     2.0910    -1.0590 ho         1 882       0.414000
     62 H9           4.3160    -0.0500    -0.4790 h1         1 882       0.083700
     63 HO4          3.5710     2.4290    -1.6690 ho         1 882       0.424000
     64 H18          1.1310    -2.2660    -2.8120 ha         1 882       0.120000
     65 H141        -0.0430     2.8760     0.7250 hc         1 882       0.050367
     66 H142         0.3060     4.1000    -0.5080 hc         1 882       0.050367
     67 H143        -1.3490     3.8700     0.0280 hc         1 882       0.050367
     68 H25         -3.3550    -1.1710     1.7950 ha         1 882       0.120000
     69 H19         -3.8050    -5.2590    -1.0160 ha         1 882       0.127500
     70 H16         -2.2860    -3.4270    -1.7370 ha         1 882       0.120000
     71 HN2         -2.3250     2.5220     0.5070 hn         1 882       0.159000
     72 H23         -7.5660     3.9420     0.1630 ha         1 882       0.112000
     73 H29         -6.9340     5.8370     1.6530 ha         1 882       0.112000
     74 C36          8.3270     1.8180     2.0970 c          1 882       0.727000
     75 F2          -5.2710    -5.2330     1.1640 f          1 882      -0.187000
@<TRIPOS>BOND
     1     1     2 1   
     2     1     4 1   
     3     1    29 1   
     4     2     3 2   
     5     2     5 1   
     6     3    24 1   
     7     3    30 1   
     8     4     8 1   
     9     4    28 1   
    10     4    41 1   
    11     5     6 1   
    12     5    42 1   
    13     5    43 1   
    14     6    22 1   
    15     6    44 1   
    16     6    45 1   
    17     7    20 1   
    18     7    22 1   
    19     7    46 1   
    20     7    47 1   
    21     8    48 1   
    22     8    49 1   
    23     8    50 1   
    24     9    25 ar  
    25     9    27 ar  
    26     9    51 1   
    27    10    11 ar  
    28    10    38 ar  
    29    10    52 1   
    30    11    40 ar  
    31    11    53 1   
    32    12    14 ar  
    33    12    24 ar  
    34    12    54 1   
    35    13    16 ar  
    36    13    32 ar  
    37    13    55 1   
    38    14    25 ar  
    39    14    56 1   
    40    15    38 ar  
    41    15    39 ar  
    42    15    57 1   
    43    16    33 ar  
    44    16    75 1   
    45    17    74 1   
    46    18    74 1   
    47    19    20 1   
    48    19    58 1   
    49    19    59 1   
    50    19    74 1   
    51    20    21 1   
    52    20    60 1   
    53    21    61 1   
    54    22    23 1   
    55    22    62 1   
    56    23    63 1   
    57    24    27 ar  
    58    25    26 1   
    59    27    64 1   
    60    28    65 1   
    61    28    66 1   
    62    28    67 1   
    63    29    30 2   
    64    29    35 1   
    65    30    31 1   
    66    31    32 ar  
    67    31    34 ar  
    68    32    68 1   
    69    33    34 ar  
    70    33    69 1   
    71    34    70 1   
    72    35    36 2   
    73    35    37 1   
    74    37    38 1   
    75    37    71 1   
    76    39    40 ar  
    77    39    72 1   
    78    40    73 1   
@<TRIPOS>SUBSTRUCTURE
     1 882         1 TEMP              0 ****  ****    0 ROOT
