@<TRIPOS>MOLECULE
883
   44    47     1     0     0
SMALL
No Charge or Current Charge


@<TRIPOS>ATOM
      1 C1           8.0150     2.6570     0.0550 c3         1 883      -0.115100
      2 C2           7.0060     1.4990     0.0130 c3         1 883       0.120000
      3 N3           5.6270     1.9860     0.0440 ns         1 883      -0.516900
      4 C4           4.5300     1.1680     0.0150 c          1 883       0.669100
      5 O5           4.6110    -0.0480    -0.0390 o          1 883      -0.637100
      6 N6           3.3510     1.8500     0.0530 ns         1 883      -0.432400
      7 C7           2.0920     1.3230     0.0380 cc         1 883       0.506400
      8 N8           0.9960     2.1010     0.0800 nd         1 883      -0.640100
      9 C9          -0.0580     1.1860     0.0450 ca         1 883       0.073400
     10 C10         -1.4350     1.4240     0.0740 ca         1 883      -0.023000
     11 C11         -2.3250     0.3130     0.0420 cp         1 883      -0.081000
     12 C12         -1.7740    -1.0080    -0.0200 ca         1 883      -0.041000
     13 C13         -0.3690    -1.2720    -0.0520 cp         1 883      -0.155500
     14 C14          0.1740    -2.6860    -0.1190 cp         1 883       0.207500
     15 N15         -0.7190    -3.6960     0.0020 nb         1 883      -0.191000
     16 C16         -0.2600    -4.9620    -0.0580 ca         1 883       0.122400
     17 C17          1.1040    -5.2330    -0.2410 ca         1 883      -0.228000
     18 C18          1.9680    -4.1350    -0.3590 ca         1 883       0.122400
     19 N19          1.5030    -2.8710    -0.2980 nb         1 883      -0.191000
     20 C20          0.4090    -0.0870    -0.0160 ca         1 883      -0.032200
     21 N21          1.7650    -0.0240    -0.0190 na         1 883      -0.293600
     22 C23         -3.8090     0.5250     0.0750 cp         1 883      -0.043000
     23 C24         -4.6800    -0.3910     0.7320 ca         1 883       0.326900
     24 N25         -6.0280    -0.2490     0.7960 nb         1 883      -0.645000
     25 C26         -6.5720     0.8370     0.1910 ca         1 883       0.297900
     26 C27         -5.8020     1.8040    -0.4860 ca         1 883       0.118000
     27 F28         -6.3950     2.8670    -1.0770 f          1 883      -0.171000
     28 C29         -4.4080     1.6510    -0.5470 ca         1 883      -0.116000
     29 H1           7.8790     3.3210    -0.8070 hc         1 883       0.046033
     30 H2           7.8920     3.2450     0.9730 hc         1 883       0.046033
     31 H3           9.0400     2.2680     0.0310 hc         1 883       0.046033
     32 H4           7.1580     0.9140    -0.9040 h1         1 883       0.054700
     33 H5           7.1700     0.8370     0.8740 h1         1 883       0.054700
     34 H6           5.4720     2.9850     0.0890 hn         1 883       0.319500
     35 H7           3.4160     2.8530     0.0960 hn         1 883       0.344500
     36 H9          -1.8040     2.4440     0.1370 ha         1 883       0.131000
     37 H10         -2.4670    -1.8440    -0.0620 ha         1 883       0.138000
     38 H11         -0.9930    -5.7610     0.0420 h4         1 883       0.027600
     39 H12          1.4760    -6.2530    -0.2900 ha         1 883       0.137000
     40 H13          3.0390    -4.2630    -0.5030 h4         1 883       0.027600
     41 H14          2.4280    -0.7860    -0.0590 hn         1 883       0.412000
     42 H15         -4.2770    -1.2670     1.2390 h4         1 883       0.029100
     43 H16         -7.6550     0.9350     0.2500 h4         1 883       0.036100
     44 H17         -3.8090     2.3850    -1.0790 ha         1 883       0.140000
@<TRIPOS>BOND
     1     1     2 1   
     2     1    29 1   
     3     1    30 1   
     4     1    31 1   
     5     2     3 1   
     6     2    32 1   
     7     2    33 1   
     8     3     4 1   
     9     3    34 1   
    10     4     5 2   
    11     4     6 1   
    12     6     7 1   
    13     6    35 1   
    14     7     8 2   
    15     7    21 1   
    16     8     9 1   
    17     9    10 ar  
    18     9    20 ar  
    19    10    11 ar  
    20    10    36 1   
    21    11    12 ar  
    22    11    22 1   
    23    12    13 ar  
    24    12    37 1   
    25    13    14 1   
    26    13    20 ar  
    27    14    15 ar  
    28    14    19 ar  
    29    15    16 ar  
    30    16    17 ar  
    31    16    38 1   
    32    17    18 ar  
    33    17    39 1   
    34    18    19 ar  
    35    18    40 1   
    36    20    21 1   
    37    21    41 1   
    38    22    23 ar  
    39    22    28 ar  
    40    23    24 ar  
    41    23    42 1   
    42    24    25 ar  
    43    25    26 ar  
    44    25    43 1   
    45    26    27 1   
    46    26    28 ar  
    47    28    44 1   
@<TRIPOS>SUBSTRUCTURE
     1 883         1 TEMP              0 ****  ****    0 ROOT
