@<TRIPOS>MOLECULE
883
   44    47     1     0     0
SMALL
bcc


@<TRIPOS>ATOM
      1 C1           7.9550     2.4930     0.0250 c3         1 883      -0.115100
      2 C2           6.9120     1.3920     0.0170 c3         1 883       0.120000
      3 N3           5.5800     1.9660     0.0430 ns         1 883      -0.583900
      4 C4           4.4790     1.2010     0.0230 c          1 883       0.803100
      5 O5           4.5040    -0.0220    -0.0130 o          1 883      -0.637100
      6 N6           3.2920     1.9130     0.0460 ns         1 883      -0.499400
      7 C7           2.0390     1.3730     0.0410 cc         1 883       0.506400
      8 N8           0.9580     2.1060     0.0860 nd         1 883      -0.640100
      9 C9          -0.0740     1.2000     0.0570 ca         1 883       0.073400
     10 C10         -1.4430     1.4150     0.0880 ca         1 883      -0.041000
     11 C11         -2.2930     0.3080     0.0580 cp         1 883      -0.081000
     12 C12         -1.7640    -0.9860    -0.0060 ca         1 883      -0.059000
     13 C13         -0.3930    -1.2330    -0.0390 cp         1 883      -0.155500
     14 C14          0.1440    -2.5990    -0.1170 cp         1 883       0.733500
     15 N15         -0.7220    -3.6070    -0.1560 nb         1 883      -0.717000
     16 C16         -0.2240    -4.8310    -0.2280 ca         1 883       0.450700
     17 C17          1.1400    -5.0760    -0.2620 ca         1 883      -0.376600
     18 C18          1.9580    -3.9620    -0.2150 ca         1 883       0.450700
     19 N19          1.4690    -2.7320    -0.1430 nb         1 883      -0.717000
     20 C20          0.4340    -0.1110    -0.0040 ca         1 883      -0.032200
     21 N21          1.7910     0.0410    -0.0150 na         1 883      -0.243300
     22 C23         -3.7540     0.5000     0.0880 cp         1 883      -0.108300
     23 C24         -4.5870    -0.3720     0.7940 ca         1 883       0.392200
     24 N25         -5.9050    -0.2490     0.8500 nb         1 883      -0.645000
     25 C26         -6.4830     0.7590     0.2120 ca         1 883       0.363200
     26 C27         -5.7320     1.6750    -0.5000 ca         1 883       0.017600
     27 F28         -6.3510     2.6800    -1.1310 f          1 883      -0.135900
     28 C29         -4.3620     1.5610    -0.5780 ca         1 883      -0.134000
     29 H1           7.8590     3.1400    -0.8470 hc         1 883       0.046033
     30 H2           7.8770     3.1100     0.9210 hc         1 883       0.046033
     31 H3           8.9520     2.0570     0.0080 hc         1 883       0.046033
     32 H4           7.0320     0.7720    -0.8730 h1         1 883       0.054700
     33 H5           7.0520     0.7400     0.8820 h1         1 883       0.054700
     34 H6           5.4970     2.9690     0.0680 hn         1 883       0.319500
     35 H7           3.3120     2.9230     0.0800 hn         1 883       0.344500
     36 H9          -1.8350     2.4230     0.1550 ha         1 883       0.149000
     37 H10         -2.4350    -1.8320    -0.0560 ha         1 883       0.156000
     38 H11         -0.9370    -5.6470    -0.2610 h4         1 883       0.027600
     39 H12          1.5390    -6.0770    -0.3210 ha         1 883       0.155000
     40 H13          3.0370    -4.0580    -0.2360 h4         1 883       0.027600
     41 H14          2.4710    -0.7040    -0.0500 hn         1 883       0.361700
     42 H15         -4.1600    -1.1970     1.3520 h4         1 883       0.029100
     43 H16         -7.5630     0.8460     0.2670 h4         1 883       0.036100
     44 H17         -3.7840     2.2700    -1.1580 ha         1 883       0.158000
@<TRIPOS>BOND
     1     1     2 1   
     2     1    29 1   
     3     1    30 1   
     4     1    31 1   
     5     2     3 1   
     6     2    32 1   
     7     2    33 1   
     8     3     4 1   
     9     3    34 1   
    10     4     5 2   
    11     4     6 1   
    12     6     7 1   
    13     6    35 1   
    14     7     8 2   
    15     7    21 1   
    16     8     9 1   
    17     9    10 ar  
    18     9    20 ar  
    19    10    11 ar  
    20    10    36 1   
    21    11    12 ar  
    22    11    22 1   
    23    12    13 ar  
    24    12    37 1   
    25    13    14 1   
    26    13    20 ar  
    27    14    15 ar  
    28    14    19 ar  
    29    15    16 ar  
    30    16    17 ar  
    31    16    38 1   
    32    17    18 ar  
    33    17    39 1   
    34    18    19 ar  
    35    18    40 1   
    36    20    21 1   
    37    21    41 1   
    38    22    23 ar  
    39    22    28 ar  
    40    23    24 ar  
    41    23    42 1   
    42    24    25 ar  
    43    25    26 ar  
    44    25    43 1   
    45    26    27 1   
    46    26    28 ar  
    47    28    44 1   
@<TRIPOS>SUBSTRUCTURE
     1 883         1 TEMP              0 ****  ****    0 ROOT
