@<TRIPOS>MOLECULE
884
   46    49     1     0     0
SMALL
bcc


@<TRIPOS>ATOM
      1 C1           9.6970    18.1390    15.8920 ca         1 884      -0.144900
      2 C2          10.4000    19.2020    15.3270 ca         1 884      -0.096500
      3 C3           9.8990    19.8820    14.2330 ca         1 884      -0.130000
      4 C4           8.6710    19.5330    13.6630 cp         1 884      -0.017000
      5 C5           7.9680    18.4730    14.2370 ca         1 884      -0.130000
      6 C6           8.4710    17.7870    15.3310 ca         1 884      -0.096500
      7 C7           8.1390    20.2650    12.4970 cp         1 884      -0.016000
      8 C8           9.0020    20.7380    11.5170 ca         1 884      -0.134000
      9 C9           8.4590    21.4340    10.4440 ca         1 884      -0.043200
     10 N10          9.0700    21.9930     9.3610 na         1 884      -0.165400
     11 C11          8.1350    22.6060     8.5660 cc         1 884      -0.014300
     12 C12          6.8930    22.4270     9.1250 cd         1 884      -0.164200
     13 C13          7.0740    21.6800    10.3210 ca         1 884      -0.097800
     14 C14          6.2160    21.1890    11.3140 ca         1 884      -0.077000
     15 C15          6.7500    20.4960    12.3770 ca         1 884      -0.146000
     16 C16          8.4940    23.2950     7.3320 ca         1 884      -0.015800
     17 C17          9.6840    23.0230     6.6530 ca         1 884      -0.123500
     18 C18          9.9960    23.6820     5.4760 ca         1 884      -0.102000
     19 C19          9.1340    24.6380     4.9430 ca         1 884      -0.193900
     20 C20          7.9460    24.9110     5.6190 ca         1 884      -0.102000
     21 C21          7.6300    24.2520     6.7920 ca         1 884      -0.123500
     22 C22         10.2550    17.4370    17.0800 ce         1 884       0.659800
     23 N23          9.8010    16.1620    17.2730 nv         1 884      -0.964800
     24 N24         11.0580    18.0730    17.8440 n2         1 884      -0.827100
     25 C25          9.4690    25.3750     3.6930 ce         1 884       0.660800
     26 N26         10.1880    24.6610     2.7800 nv         1 884      -0.921800
     27 N27          9.1680    26.5970     3.4680 n2         1 884      -0.841100
     28 H2          11.3490    19.4970    15.7530 ha         1 884       0.144500
     29 H3          10.4640    20.7130    13.8300 ha         1 884       0.134500
     30 H5           7.0190    18.1640    13.8180 ha         1 884       0.134500
     31 H6           7.8850    16.9790    15.7500 ha         1 884       0.144500
     32 H8          10.0680    20.5540    11.5720 ha         1 884       0.135000
     33 HN10        10.0680    22.0410     9.2320 hn         1 884       0.299700
     34 H12          5.9560    22.7650     8.7110 ha         1 884       0.156000
     35 H14          5.1490    21.3630    11.2570 ha         1 884       0.135000
     36 H15          6.0880    20.1410    13.1560 ha         1 884       0.133000
     37 H17         10.3760    22.2780     7.0260 ha         1 884       0.135500
     38 H18         10.9300    23.4510     4.9800 ha         1 884       0.141500
     39 H20          7.2490    25.6370     5.2210 ha         1 884       0.141500
     40 H21          6.7050    24.4950     7.2980 ha         1 884       0.135500
     41 HN23        10.2600    15.6130    17.9820 hn         1 884       0.404800
     42 HN2A         9.5300    15.6250    16.4650 hn         1 884       0.404800
     43 HN24        11.3930    17.4820    18.6000 hn         1 884       0.370400
     44 HN26        10.0510    23.6640     2.7380 hn         1 884       0.413300
     45 HN2B        10.3200    25.0970     1.8810 hn         1 884       0.413300
     46 HN27         8.7340    27.0170     4.2810 hn         1 884       0.389400
@<TRIPOS>BOND
     1     1     2 ar  
     2     1     6 ar  
     3     1    22 1   
     4     2     3 ar  
     5     2    28 1   
     6     3     4 ar  
     7     3    29 1   
     8     4     5 ar  
     9     4     7 1   
    10     5     6 ar  
    11     5    30 1   
    12     6    31 1   
    13     7     8 ar  
    14     7    15 ar  
    15     8     9 ar  
    16     8    32 1   
    17     9    10 1   
    18     9    13 ar  
    19    10    11 1   
    20    10    33 1   
    21    11    12 2   
    22    11    16 1   
    23    12    13 1   
    24    12    34 1   
    25    13    14 ar  
    26    14    15 ar  
    27    14    35 1   
    28    15    36 1   
    29    16    17 ar  
    30    16    21 ar  
    31    17    18 ar  
    32    17    37 1   
    33    18    19 ar  
    34    18    38 1   
    35    19    20 ar  
    36    19    25 1   
    37    20    21 ar  
    38    20    39 1   
    39    21    40 1   
    40    22    23 1   
    41    22    24 2   
    42    23    41 1   
    43    23    42 1   
    44    24    43 1   
    45    25    26 1   
    46    25    27 2   
    47    26    44 1   
    48    26    45 1   
    49    27    46 1   
@<TRIPOS>SUBSTRUCTURE
     1 884         1 TEMP              0 ****  ****    0 ROOT
