@<TRIPOS>MOLECULE
884
   46    49     1     0     0
SMALL
No Charge or Current Charge


@<TRIPOS>ATOM
      1 C1           9.6810    18.0280    15.9890 ca         1 884      -0.144900
      2 C2          10.4480    19.0700    15.4200 ca         1 884      -0.078500
      3 C3           9.9700    19.7980    14.3170 ca         1 884      -0.112000
      4 C4           8.7020    19.5270    13.7500 cp         1 884      -0.017000
      5 C5           7.9280    18.4980    14.3390 ca         1 884      -0.112000
      6 C6           8.4030    17.7650    15.4410 ca         1 884      -0.078500
      7 C7           8.1940    20.3070    12.5750 cp         1 884      -0.016000
      8 C8           9.0870    20.7650    11.5630 ca         1 884      -0.116000
      9 C9           8.5710    21.4910    10.4820 ca         1 884      -0.043200
     10 N10          9.2390    22.0260     9.3890 na         1 884      -0.215700
     11 C11          8.3160    22.6800     8.5510 cc         1 884      -0.014300
     12 C12          7.0780    22.5140     9.1570 cd         1 884      -0.214200
     13 C13          7.2360    21.7660    10.3790 ca         1 884      -0.097800
     14 C14          6.3110    21.3450    11.3380 ca         1 884      -0.059000
     15 C15          6.8030    20.6120    12.4390 ca         1 884      -0.128000
     16 C16          8.5570    23.3660     7.2730 ca         1 884      -0.015800
     17 C17          9.8180    23.2690     6.6510 ca         1 884      -0.105500
     18 C18         10.0730    23.9160     5.4300 ca         1 884      -0.084000
     19 C19          9.0680    24.6750     4.7890 ca         1 884      -0.193900
     20 C20          7.8120    24.7920     5.4260 ca         1 884      -0.084000
     21 C21          7.5590    24.1410     6.6470 ca         1 884      -0.105500
     22 C22         10.1890    17.2770    17.1860 ce         1 884       0.659800
     23 N23          9.6810    16.0500    17.4330 nv         1 884      -1.075200
     24 N24         11.1380    17.6930    17.9190 n2         1 884      -0.827100
     25 C25          9.3510    25.3990     3.5110 ce         1 884       0.660800
     26 N26         10.2310    24.8470     2.6560 nv         1 884      -1.032200
     27 N27          8.7040    26.4200     3.1260 n2         1 884      -0.841100
     28 H2          11.4260    19.3160    15.8290 ha         1 884       0.126500
     29 H3          10.5870    20.5950    13.9100 ha         1 884       0.116500
     30 H5           6.9490    18.2560    13.9340 ha         1 884       0.116500
     31 H6           7.7620    16.9970    15.8680 ha         1 884       0.126500
     32 H8          10.1500    20.5470    11.6150 ha         1 884       0.117000
     33 HN10        10.2360    21.9580     9.2250 hn         1 884       0.350000
     34 H12          6.1290    22.8720     8.7710 ha         1 884       0.206000
     35 H14          5.2530    21.5760    11.2410 ha         1 884       0.117000
     36 H15          6.1020    20.2870    13.2030 ha         1 884       0.115000
     37 H17         10.6130    22.6880     7.1120 ha         1 884       0.117500
     38 H18         11.0660    23.8320     4.9920 ha         1 884       0.123500
     39 H20          7.0130    25.3770     4.9740 ha         1 884       0.123500
     40 H21          6.5800    24.2570     7.1010 ha         1 884       0.117500
     41 HN23        10.2930    15.4140    17.9320 hn         1 884       0.460000
     42 HN2A         9.1620    15.6350    16.6690 hn         1 884       0.460000
     43 HN24        11.1550    17.1210    18.7700 hn         1 884       0.370400
     44 HN26        10.3730    23.8520     2.7710 hn         1 884       0.468500
     45 HN2B        10.1440    25.1760     1.7030 hn         1 884       0.468500
     46 HN27         8.1210    26.7330     3.9130 hn         1 884       0.389400
@<TRIPOS>BOND
     1     1     2 ar  
     2     1     6 ar  
     3     1    22 1   
     4     2     3 ar  
     5     2    28 1   
     6     3     4 ar  
     7     3    29 1   
     8     4     5 ar  
     9     4     7 1   
    10     5     6 ar  
    11     5    30 1   
    12     6    31 1   
    13     7     8 ar  
    14     7    15 ar  
    15     8     9 ar  
    16     8    32 1   
    17     9    10 1   
    18     9    13 ar  
    19    10    11 1   
    20    10    33 1   
    21    11    12 2   
    22    11    16 1   
    23    12    13 1   
    24    12    34 1   
    25    13    14 ar  
    26    14    15 ar  
    27    14    35 1   
    28    15    36 1   
    29    16    17 ar  
    30    16    21 ar  
    31    17    18 ar  
    32    17    37 1   
    33    18    19 ar  
    34    18    38 1   
    35    19    20 ar  
    36    19    25 1   
    37    20    21 ar  
    38    20    39 1   
    39    21    40 1   
    40    22    23 1   
    41    22    24 2   
    42    23    41 1   
    43    23    42 1   
    44    24    43 1   
    45    25    26 1   
    46    25    27 2   
    47    26    44 1   
    48    26    45 1   
    49    27    46 1   
@<TRIPOS>SUBSTRUCTURE
     1 884         1 TEMP              0 ****  ****    0 ROOT
