@<TRIPOS>MOLECULE
885
   34    35     1     0     0
SMALL
bcc


@<TRIPOS>ATOM
      1 C1          -4.0750     2.0340    -0.4450 c3         1 885      -0.027800
      2 C2          -3.0820     0.9570    -0.1330 ca         1 885      -0.161300
      3 C3          -1.7580     1.2520     0.1510 ca         1 885       0.012000
      4 C4          -0.8160     0.2720     0.4390 ca         1 885      -0.353500
      5 C5          -1.1740    -1.0900     0.4700 ca         1 885       0.277600
      6 C6          -2.5120    -1.3940     0.1820 ca         1 885      -0.243000
      7 C7          -3.4180    -0.3970    -0.1110 ca         1 885       0.114400
      8 CL          -5.0510    -0.8630    -0.4580 cl         1 885      -0.144400
      9 N1          -0.2930    -2.1000     0.7130 nv         1 885      -0.828200
     10 S1           0.8630     0.7620     0.7320 sy         1 885       1.375200
     11 O1           1.3400     0.0610     1.9220 o          1 885      -0.620800
     12 O2           0.8770     2.2170     0.7230 o          1 885      -0.620800
     13 N2           1.6350     0.1210    -0.5380 n3         1 885      -0.783500
     14 C8           1.3830     0.5980    -1.8900 c5         1 885       0.231800
     15 C9           2.0820    -0.4750    -2.7100 c5         1 885      -0.086400
     16 C10          3.3220    -0.7770    -1.8750 c5         1 885      -0.068400
     17 C11          2.8500    -0.6830    -0.4110 c5         1 885       0.108500
     18 C12          3.9560    -0.0640     0.4620 c          1 885       0.925600
     19 O3           4.8230    -0.8700     0.8530 o          1 885      -0.818300
     20 O4           3.9180     1.1630     0.6420 o          1 885      -0.818300
     21 H11A        -4.5040     1.9140    -1.4410 hc         1 885       0.037367
     22 H12         -4.9050     2.0370     0.2630 hc         1 885       0.037367
     23 H13         -3.6020     3.0140    -0.4050 hc         1 885       0.037367
     24 H3          -1.4480     2.2880     0.1440 ha         1 885       0.158000
     25 H6          -2.8330    -2.4280     0.1950 ha         1 885       0.134000
     26 HN11         0.5140    -1.9000     1.2800 hn         1 885       0.427300
     27 HN12        -0.6930    -3.0050     0.9000 hn         1 885       0.427300
     28 H81          0.3130     0.6600    -2.0970 h1         1 885       0.036700
     29 H82          1.8270     1.5820    -2.0650 h1         1 885       0.036700
     30 H91          1.4430    -1.3580    -2.7840 hc         1 885       0.030700
     31 H92          2.3180    -0.1390    -3.7190 hc         1 885       0.030700
     32 H101         3.7620    -1.7490    -2.0930 hc         1 885       0.046700
     33 H102         4.0820    -0.0170    -2.0720 hc         1 885       0.046700
     34 H11          2.5900    -1.6780    -0.0390 h1         1 885       0.042700
@<TRIPOS>BOND
     1     1     2 1   
     2     1    21 1   
     3     1    22 1   
     4     1    23 1   
     5     2     3 ar  
     6     2     7 ar  
     7     3     4 ar  
     8     3    24 1   
     9     4     5 ar  
    10     4    10 1   
    11     5     6 ar  
    12     5     9 1   
    13     6     7 ar  
    14     6    25 1   
    15     7     8 1   
    16     9    26 1   
    17     9    27 1   
    18    10    11 2   
    19    10    12 2   
    20    10    13 1   
    21    13    14 1   
    22    13    17 1   
    23    14    15 1   
    24    14    28 1   
    25    14    29 1   
    26    15    16 1   
    27    15    30 1   
    28    15    31 1   
    29    16    17 1   
    30    16    32 1   
    31    16    33 1   
    32    17    18 1   
    33    17    34 1   
    34    18    19 1   
    35    18    20 1   
@<TRIPOS>SUBSTRUCTURE
     1 885         1 TEMP              0 ****  ****    0 ROOT
