@<TRIPOS>MOLECULE
885
   34    35     1     0     0
SMALL
No Charge or Current Charge


@<TRIPOS>ATOM
      1 C1          -3.7060     2.2580    -0.4310 c3         1 885      -0.027800
      2 C2          -2.9390     0.9810    -0.1030 ca         1 885      -0.161300
      3 C3          -1.5840     1.0520     0.2710 ca         1 885       0.030000
      4 C4          -0.8580    -0.1200     0.5750 ca         1 885      -0.353500
      5 C5          -1.4950    -1.3670     0.4990 ca         1 885       0.416000
      6 C6          -2.8410    -1.4410     0.1290 ca         1 885      -0.225000
      7 C7          -3.5620    -0.2800    -0.1710 ca         1 885       0.206000
      8 Cl          -5.2570    -0.4330    -0.6360 cl         1 885      -0.236000
      9 N1          -0.8590    -2.5370     0.7760 nv         1 885      -1.077000
     10 S1           0.8730     0.0500     1.0250 sy         1 885       1.233600
     11 O1           1.2220    -1.0380     1.9490 o          1 885      -0.550000
     12 O2           1.1700     1.4540     1.3310 o          1 885      -0.550000
     13 N2           1.6580    -0.3200    -0.4360 n3         1 885      -0.783500
     14 C8           1.2470     0.3430    -1.6810 c5         1 885       0.231800
     15 C9           2.0630    -0.4780    -2.7040 c5         1 885      -0.086400
     16 C10          3.4560    -0.5940    -2.0180 c5         1 885      -0.068400
     17 C11          3.1600    -0.3630    -0.4930 c5         1 885       0.108500
     18 C12          3.9510     0.9150     0.0430 c          1 885       0.715000
     19 O3           4.6020     0.8080     1.0760 o          1 885      -0.713000
     20 O4           3.9480     1.9640    -0.5950 o          1 885      -0.713000
     21 H11A        -4.0820     2.2390    -1.4610 hc         1 885       0.037367
     22 H12         -4.5650     2.3850     0.2390 hc         1 885       0.037367
     23 H13         -3.0770     3.1510    -0.3290 hc         1 885       0.037367
     24 H3          -1.0990     2.0260     0.3180 ha         1 885       0.140000
     25 H6          -3.3370    -2.4040     0.0680 ha         1 885       0.116000
     26 HN11         0.0460    -2.4790     1.2420 hn         1 885       0.482500
     27 HN12        -1.4090    -3.3770     0.9350 hn         1 885       0.482500
     28 H81          0.1690     0.2600    -1.8760 h1         1 885       0.036700
     29 H82          1.5200     1.4070    -1.6910 h1         1 885       0.036700
     30 H91          1.6150    -1.4670    -2.8550 hc         1 885       0.030700
     31 H92          2.1150     0.0100    -3.6840 hc         1 885       0.030700
     32 H101         3.9010    -1.5800    -2.1940 hc         1 885       0.046700
     33 H102         4.1620     0.1390    -2.4230 hc         1 885       0.046700
     34 H11          3.5270    -1.2190     0.0890 h1         1 885       0.042700
@<TRIPOS>BOND
     1     1     2 1   
     2     1    21 1   
     3     1    22 1   
     4     1    23 1   
     5     2     3 ar  
     6     2     7 ar  
     7     3     4 ar  
     8     3    24 1   
     9     4     5 ar  
    10     4    10 1   
    11     5     6 ar  
    12     5     9 1   
    13     6     7 ar  
    14     6    25 1   
    15     7     8 1   
    16     9    26 1   
    17     9    27 1   
    18    10    11 2   
    19    10    12 2   
    20    10    13 1   
    21    13    14 1   
    22    13    17 1   
    23    14    15 1   
    24    14    28 1   
    25    14    29 1   
    26    15    16 1   
    27    15    30 1   
    28    15    31 1   
    29    16    17 1   
    30    16    32 1   
    31    16    33 1   
    32    17    18 1   
    33    17    34 1   
    34    18    19 1   
    35    18    20 1   
@<TRIPOS>SUBSTRUCTURE
     1 885         1 TEMP              0 ****  ****    0 ROOT
