@<TRIPOS>MOLECULE
886
   66    68     1     0     0
SMALL
No Charge or Current Charge


@<TRIPOS>ATOM
      1 C1          -6.9670    -2.1320    -2.0800 c3         1 886      -0.078600
      2 C2          -7.3290    -2.1060    -0.5720 c3         1 886      -0.037700
      3 C3          -6.9430    -3.4550     0.0850 c3         1 886      -0.078600
      4 C4          -6.6970    -0.8830     0.1660 c3         1 886       0.054500
      5 C5          -6.9670    -0.9320     1.7220 c          1 886       0.707000
      6 O1          -8.1180    -0.7740     2.1140 o          1 886      -0.712500
      7 O2          -6.0160    -1.0820     2.4780 o          1 886      -0.712500
      8 N1          -7.1690     0.3930    -0.4790 n7         1 886      -0.849300
      9 S1          -6.4040     1.8360    -0.1210 sy         1 886       1.127600
     10 O3          -6.7540     2.7290    -1.2290 o          1 886      -0.555500
     11 O4          -6.7400     2.1470     1.2700 o          1 886      -0.555500
     12 C6          -4.6670     1.3860    -0.2700 ca         1 886      -0.242500
     13 C7          -3.8740     1.1990     0.8790 ca         1 886      -0.008500
     14 C8          -2.5240     0.8310     0.7480 ca         1 886      -0.126500
     15 C9          -1.9320     0.6410    -0.5260 cp         1 886      -0.015000
     16 C10         -2.7500     0.8320    -1.6680 ca         1 886      -0.126500
     17 C11         -4.1010     1.1980    -1.5450 ca         1 886      -0.008500
     18 C12         -0.4920     0.2470    -0.6610 cp         1 886      -0.010000
     19 C13          0.3010     0.7220    -1.7360 ca         1 886      -0.104000
     20 C14          1.6510     0.3540    -1.8640 ca         1 886      -0.086500
     21 C15          2.2460    -0.5020    -0.9200 ca         1 886      -0.108300
     22 C16          1.4760    -0.9820     0.1550 ca         1 886      -0.086500
     23 C17          0.1260    -0.6120     0.2820 ca         1 886      -0.104000
     24 C18          3.7090    -0.9020    -1.0580 c3         1 886       0.213900
     25 O5           4.5130     0.0640    -0.3620 os         1 886      -0.336100
     26 C19          5.8880    -0.0280    -0.3060 ca         1 886       0.179100
     27 C20          6.6090    -1.0680    -0.9270 ca         1 886      -0.194500
     28 C21          8.0110    -1.1070    -0.8350 ca         1 886      -0.025500
     29 C22          8.7130    -0.1150    -0.1180 ca         1 886      -0.222600
     30 C23          7.9840     0.9310     0.4910 ca         1 886      -0.025500
     31 C24          6.5830     0.9670     0.3960 ca         1 886      -0.194500
     32 C25         10.2230    -0.1810    -0.0430 c          1 886       0.591700
     33 O6          10.8590    -0.6920    -0.9590 o          1 886      -0.537100
     34 C26         10.9600     0.4210     1.1790 c3         1 886      -0.156700
     35 C27         11.9500    -0.5890     1.8080 c3         1 886      -0.081600
     36 C28         11.6500     1.7550     0.8060 c3         1 886      -0.081600
     37 H11         -7.4090    -3.0080    -2.5700 hc         1 886       0.023533
     38 H12         -7.3420    -1.2420    -2.5980 hc         1 886       0.023533
     39 H13         -5.8790    -2.1770    -2.2180 hc         1 886       0.023533
     40 H21         -8.4200    -2.0150    -0.5000 hc         1 886       0.051700
     41 H31         -7.3130    -3.5190     1.1140 hc         1 886       0.023533
     42 H32         -7.3780    -4.2950    -0.4710 hc         1 886       0.023533
     43 H33         -5.8540    -3.5830     0.1000 hc         1 886       0.023533
     44 H41         -5.6120    -0.9830     0.0370 h1         1 886       0.044700
     45 H1N1        -8.1080     0.5960    -0.1380 hn         1 886       0.503000
     46 H71         -4.2980     1.3330     1.8730 ha         1 886       0.141500
     47 H81         -1.9280     0.7050     1.6480 ha         1 886       0.109000
     48 H101        -2.3390     0.6780    -2.6620 ha         1 886       0.109000
     49 H111        -4.7070     1.3260    -2.4400 ha         1 886       0.141500
     50 H131        -0.1310     1.3950    -2.4730 ha         1 886       0.122500
     51 H141         2.2360     0.7390    -2.6970 ha         1 886       0.111500
     52 H161         1.9230    -1.6450     0.8940 ha         1 886       0.111500
     53 H171        -0.4500    -1.0090     1.1140 ha         1 886       0.122500
     54 H181         3.8560    -1.9050    -0.6340 h1         1 886       0.042200
     55 H182         3.9800    -0.9370    -2.1210 h1         1 886       0.042200
     56 H201         6.1040    -1.8530    -1.4820 ha         1 886       0.127500
     57 H211         8.5510    -1.9190    -1.3190 ha         1 886       0.121500
     58 H231         8.4910     1.7320     1.0260 ha         1 886       0.121500
     59 H241         6.0300     1.7750     0.8670 ha         1 886       0.127500
     60 H261        10.2130     0.6570     1.9450 hc         1 886       0.059700
     61 H271        12.7530    -0.8440     1.1050 hc         1 886       0.039533
     62 H272        12.4090    -0.1700     2.7120 hc         1 886       0.039533
     63 H273        11.4320    -1.5140     2.0880 hc         1 886       0.039533
     64 H281        10.9220     2.4680     0.4000 hc         1 886       0.039533
     65 H282        12.1150     2.2110     1.6880 hc         1 886       0.039533
     66 H283        12.4290     1.5940     0.0520 hc         1 886       0.039533
@<TRIPOS>BOND
     1     1     2 1   
     2     1    37 1   
     3     1    38 1   
     4     1    39 1   
     5     2     3 1   
     6     2     4 1   
     7     2    40 1   
     8     3    41 1   
     9     3    42 1   
    10     3    43 1   
    11     4     5 1   
    12     4     8 1   
    13     4    44 1   
    14     5     6 1   
    15     5     7 1   
    16     8     9 1   
    17     8    45 1   
    18     9    10 2   
    19     9    11 2   
    20     9    12 1   
    21    12    13 ar  
    22    12    17 ar  
    23    13    14 ar  
    24    13    46 1   
    25    14    15 ar  
    26    14    47 1   
    27    15    16 ar  
    28    15    18 1   
    29    16    17 ar  
    30    16    48 1   
    31    17    49 1   
    32    18    19 ar  
    33    18    23 ar  
    34    19    20 ar  
    35    19    50 1   
    36    20    21 ar  
    37    20    51 1   
    38    21    22 ar  
    39    21    24 1   
    40    22    23 ar  
    41    22    52 1   
    42    23    53 1   
    43    24    25 1   
    44    24    54 1   
    45    24    55 1   
    46    25    26 1   
    47    26    27 ar  
    48    26    31 ar  
    49    27    28 ar  
    50    27    56 1   
    51    28    29 ar  
    52    28    57 1   
    53    29    30 ar  
    54    29    32 1   
    55    30    31 ar  
    56    30    58 1   
    57    31    59 1   
    58    32    33 2   
    59    32    34 1   
    60    34    35 1   
    61    34    36 1   
    62    34    60 1   
    63    35    61 1   
    64    35    62 1   
    65    35    63 1   
    66    36    64 1   
    67    36    65 1   
    68    36    66 1   
@<TRIPOS>SUBSTRUCTURE
     1 886         1 TEMP              0 ****  ****    0 ROOT
