@<TRIPOS>MOLECULE
886
   66    68     1     0     0
SMALL
abcg2


@<TRIPOS>ATOM
      1 C1          -5.7590    -1.8890    -1.7320 c3         1 886      -0.078600
      2 C2          -7.0420    -1.8870    -0.9070 c3         1 886      -0.037700
      3 C3          -7.2320    -3.2360    -0.2210 c3         1 886      -0.078600
      4 C4          -7.0370    -0.7300     0.1060 c3         1 886       0.054500
      5 C5          -8.3100    -0.7210     0.9840 c          1 886       0.707000
      6 O1          -9.2960    -0.1370     0.4900 o          1 886      -0.712500
      7 O2          -8.2520    -1.3170     2.0730 o          1 886      -0.712500
      8 N1          -6.9180     0.5320    -0.6360 n7         1 886      -0.849300
      9 S1          -6.1540     1.7790     0.1170 sy         1 886       1.127600
     10 O3          -6.3740     2.9560    -0.7150 o          1 886      -0.555500
     11 O4          -6.4750     1.8780     1.5380 o          1 886      -0.555500
     12 C6          -4.4630     1.2760    -0.0150 ca         1 886      -0.242500
     13 C7          -3.7710     0.8510     1.1080 ca         1 886      -0.008500
     14 C8          -2.4490     0.4530     0.9790 ca         1 886      -0.126500
     15 C9          -1.8100     0.4810    -0.2600 cp         1 886      -0.015000
     16 C10         -2.5290     0.9190    -1.3750 ca         1 886      -0.126500
     17 C11         -3.8480     1.3150    -1.2600 ca         1 886      -0.008500
     18 C12         -0.4020     0.0610    -0.3940 cp         1 886      -0.010000
     19 C13          0.4600     0.7300    -1.2660 ca         1 886      -0.104000
     20 C14          1.7810     0.3360    -1.3940 ca         1 886      -0.086500
     21 C15          2.2760    -0.7370    -0.6590 ca         1 886      -0.108300
     22 C16          1.4210    -1.4050     0.2100 ca         1 886      -0.086500
     23 C17          0.0980    -1.0130     0.3410 ca         1 886      -0.104000
     24 C18          3.7140    -1.1390    -0.7820 c3         1 886       0.213900
     25 O5           4.4770    -0.2030    -0.0260 os         1 886      -0.336100
     26 C19          5.8120    -0.3150    -0.0090 ca         1 886       0.179100
     27 C20          6.5270    -1.3310    -0.6450 ca         1 886      -0.194500
     28 C21          7.9080    -1.3520    -0.5570 ca         1 886      -0.025500
     29 C22          8.6150    -0.3790     0.1490 ca         1 886      -0.222600
     30 C23          7.8810     0.6310     0.7790 ca         1 886      -0.025500
     31 C24          6.5040     0.6660     0.7060 ca         1 886      -0.194500
     32 C25         10.0980    -0.4650     0.2050 c          1 886       0.591700
     33 O6          10.6710    -1.4240    -0.2760 o          1 886      -0.537100
     34 C26         10.8810     0.6770     0.8250 c3         1 886      -0.156700
     35 C27         12.2800     0.2460     1.2450 c3         1 886      -0.081600
     36 C28         10.9420     1.8330    -0.1840 c3         1 886      -0.081600
     37 H11         -5.7610    -2.7130    -2.4470 hc         1 886       0.023533
     38 H12         -5.6360    -0.9610    -2.2880 hc         1 886       0.023533
     39 H13         -4.8810    -2.0060    -1.0900 hc         1 886       0.023533
     40 H21         -7.8880    -1.7280    -1.5860 hc         1 886       0.051700
     41 H31         -8.1950    -3.3190     0.2800 hc         1 886       0.023533
     42 H32         -7.1720    -4.0410    -0.9540 hc         1 886       0.023533
     43 H33         -6.4540    -3.4110     0.5260 hc         1 886       0.023533
     44 H41         -6.1550    -0.8540     0.7430 h1         1 886       0.044700
     45 H1N1        -7.8430     0.8340    -0.9440 hn         1 886       0.503000
     46 H71         -4.2440     0.8320     2.0800 ha         1 886       0.141500
     47 H81         -1.9100     0.1390     1.8620 ha         1 886       0.109000
     48 H101        -2.0600     0.9340    -2.3500 ha         1 886       0.109000
     49 H111        -4.3880     1.6390    -2.1390 ha         1 886       0.141500
     50 H131         0.1030     1.5780    -1.8360 ha         1 886       0.122500
     51 H141         2.4320     0.8690    -2.0760 ha         1 886       0.111500
     52 H161         1.7860    -2.2480     0.7830 ha         1 886       0.111500
     53 H171        -0.5530    -1.5650     1.0070 ha         1 886       0.122500
     54 H181         3.8640    -2.1530    -0.3980 h1         1 886       0.042200
     55 H182         4.0320    -1.1240    -1.8290 h1         1 886       0.042200
     56 H201         6.0290    -2.1100    -1.2050 ha         1 886       0.127500
     57 H211         8.4450    -2.1490    -1.0540 ha         1 886       0.121500
     58 H231         8.3760     1.4100     1.3420 ha         1 886       0.121500
     59 H241         5.9510     1.4550     1.1990 ha         1 886       0.127500
     60 H261        10.3510     1.0280     1.7140 hc         1 886       0.059700
     61 H271        12.8730    -0.0850     0.3930 hc         1 886       0.039533
     62 H272        12.8000     1.0860     1.7050 hc         1 886       0.039533
     63 H273        12.2510    -0.5650     1.9730 hc         1 886       0.039533
     64 H281         9.9530     2.1880    -0.4730 hc         1 886       0.039533
     65 H282        11.4830     2.6750     0.2480 hc         1 886       0.039533
     66 H283        11.4680     1.5270    -1.0900 hc         1 886       0.039533
@<TRIPOS>BOND
     1     1     2 1   
     2     1    37 1   
     3     1    38 1   
     4     1    39 1   
     5     2     3 1   
     6     2     4 1   
     7     2    40 1   
     8     3    41 1   
     9     3    42 1   
    10     3    43 1   
    11     4     5 1   
    12     4     8 1   
    13     4    44 1   
    14     5     6 1   
    15     5     7 1   
    16     8     9 1   
    17     8    45 1   
    18     9    10 2   
    19     9    11 2   
    20     9    12 1   
    21    12    13 ar  
    22    12    17 ar  
    23    13    14 ar  
    24    13    46 1   
    25    14    15 ar  
    26    14    47 1   
    27    15    16 ar  
    28    15    18 1   
    29    16    17 ar  
    30    16    48 1   
    31    17    49 1   
    32    18    19 ar  
    33    18    23 ar  
    34    19    20 ar  
    35    19    50 1   
    36    20    21 ar  
    37    20    51 1   
    38    21    22 ar  
    39    21    24 1   
    40    22    23 ar  
    41    22    52 1   
    42    23    53 1   
    43    24    25 1   
    44    24    54 1   
    45    24    55 1   
    46    25    26 1   
    47    26    27 ar  
    48    26    31 ar  
    49    27    28 ar  
    50    27    56 1   
    51    28    29 ar  
    52    28    57 1   
    53    29    30 ar  
    54    29    32 1   
    55    30    31 ar  
    56    30    58 1   
    57    31    59 1   
    58    32    33 2   
    59    32    34 1   
    60    34    35 1   
    61    34    36 1   
    62    34    60 1   
    63    35    61 1   
    64    35    62 1   
    65    35    63 1   
    66    36    64 1   
    67    36    65 1   
    68    36    66 1   
@<TRIPOS>SUBSTRUCTURE
     1 886         1 TEMP              0 ****  ****    0 ROOT
