@<TRIPOS>MOLECULE
887
   53    57     1     0     0
SMALL
bcc


@<TRIPOS>ATOM
      1 C1           0.2830     0.8580     0.0320 ca         1 887       0.100100
      2 C2           0.8940     1.7960     0.8080 ca         1 887      -0.122000
      3 C3           2.3050     1.9020     0.8060 ca         1 887      -0.036000
      4 C4           3.0780     1.0270    -0.0040 ca         1 887      -0.003000
      5 C5           2.3940     0.0620    -0.7860 ca         1 887      -0.094000
      6 C6           1.0310    -0.0240    -0.7710 ca         1 887      -0.140000
      7 C10          2.9490     2.8690     1.6110 ca         1 887      -0.096000
      8 C11          4.3110     2.9590     1.6300 ca         1 887      -0.131000
      9 C12          5.0860     2.0870     0.8430 ca         1 887      -0.103000
     10 C13          4.4980     1.1440     0.0370 ca         1 887      -0.129600
     11 O17         -1.0890     0.8020    -0.0040 os         1 887      -0.248200
     12 C18         -1.7260    -0.2330     0.5810 ca         1 887       0.186100
     13 C19         -3.1130    -0.3350     0.3210 ca         1 887      -0.157300
     14 C20         -3.8040    -1.4020     0.9340 ca         1 887       0.434600
     15 N21         -3.2020    -2.3070     1.7380 nb         1 887      -0.683000
     16 C22         -1.9180    -2.1690     1.9520 ca         1 887       0.442200
     17 C23         -1.1220    -1.1510     1.4040 ca         1 887      -0.345300
     18 C26         -3.8120     0.5750    -0.5090 ca         1 887      -0.173000
     19 C27         -5.1540     0.4260    -0.7230 ca         1 887       0.117100
     20 C28         -5.8620    -0.6580    -0.1070 ca         1 887       0.147100
     21 C29         -5.1930    -1.5400     0.6970 ca         1 887      -0.267300
     22 O32         -5.9140     1.2270    -1.4830 os         1 887      -0.296900
     23 O33         -7.1680    -0.7040    -0.3900 os         1 887      -0.292900
     24 C34         -7.9370    -1.7460     0.1810 c3         1 887       0.119700
     25 C38         -5.2950     2.3330    -2.1100 c3         1 887       0.120700
     26 C42          5.3710     0.2970    -0.8380 c          1 887       0.678700
     27 N43          6.4070    -0.2830    -0.2090 ns         1 887      -0.549900
     28 C44          7.3880    -1.0470    -0.9070 cx         1 887       0.047700
     29 O45          5.1620     0.1690    -2.0350 o          1 887      -0.585100
     30 C46          7.9800    -2.2220    -0.2020 cx         1 887      -0.134400
     31 C47          7.0520    -2.4330    -1.3590 cx         1 887      -0.134400
     32 H2           0.3080     2.4650     1.4260 ha         1 887       0.150000
     33 H5           2.9480    -0.6210    -1.4130 ha         1 887       0.158000
     34 H6           0.5240    -0.7620    -1.3800 ha         1 887       0.152000
     35 H10          2.3450     3.5360     2.2130 ha         1 887       0.137000
     36 H11          4.8040     3.7020     2.2420 ha         1 887       0.138000
     37 H12          6.1640     2.1890     0.8610 ha         1 887       0.135000
     38 H22         -1.4490    -2.9000     2.6010 h4         1 887       0.016100
     39 H23         -0.0690    -1.1120     1.6450 ha         1 887       0.152000
     40 H26         -3.2720     1.3900    -0.9690 ha         1 887       0.154000
     41 H29         -5.6990    -2.3660     1.1780 ha         1 887       0.157000
     42 H341        -7.9260    -1.7060     1.2730 h1         1 887       0.044033
     43 H342        -8.9570    -1.6020    -0.1670 h1         1 887       0.044033
     44 H343        -7.5880    -2.7300    -0.1400 h1         1 887       0.044033
     45 H381        -4.8540     3.0170    -1.3800 h1         1 887       0.042367
     46 H382        -4.5200     2.0200    -2.8140 h1         1 887       0.042367
     47 H383        -6.0770     2.8560    -2.6550 h1         1 887       0.042367
     48 H43          6.5240    -0.1400     0.7810 hn         1 887       0.321500
     49 H44          8.0490    -0.4680    -1.5450 h1         1 887       0.089700
     50 H461         9.0370    -2.4090    -0.3380 hc         1 887       0.077950
     51 H462         7.6080    -2.4520     0.7880 hc         1 887       0.077950
     52 H471         6.0580    -2.8020    -1.1450 hc         1 887       0.077950
     53 H472         7.4640    -2.7660    -2.3030 hc         1 887       0.077950
@<TRIPOS>BOND
     1     1     2 ar  
     2     1     6 ar  
     3     1    11 1   
     4     2     3 ar  
     5     2    32 1   
     6     3     4 ar  
     7     3     7 ar  
     8     4     5 ar  
     9     4    10 ar  
    10     5     6 ar  
    11     5    33 1   
    12     6    34 1   
    13     7     8 ar  
    14     7    35 1   
    15     8     9 ar  
    16     8    36 1   
    17     9    10 ar  
    18     9    37 1   
    19    10    26 1   
    20    11    12 1   
    21    12    13 ar  
    22    12    17 ar  
    23    13    14 ar  
    24    13    18 ar  
    25    14    15 ar  
    26    14    21 ar  
    27    15    16 ar  
    28    16    17 ar  
    29    16    38 1   
    30    17    39 1   
    31    18    19 ar  
    32    18    40 1   
    33    19    20 ar  
    34    19    22 1   
    35    20    21 ar  
    36    20    23 1   
    37    21    41 1   
    38    22    25 1   
    39    23    24 1   
    40    24    42 1   
    41    24    43 1   
    42    24    44 1   
    43    25    45 1   
    44    25    46 1   
    45    25    47 1   
    46    26    27 1   
    47    26    29 2   
    48    27    28 1   
    49    27    48 1   
    50    28    30 1   
    51    28    31 1   
    52    28    49 1   
    53    30    31 1   
    54    30    50 1   
    55    30    51 1   
    56    31    52 1   
    57    31    53 1   
@<TRIPOS>SUBSTRUCTURE
     1 887         1 TEMP              0 ****  ****    0 ROOT
