@<TRIPOS>MOLECULE
887
   53    57     1     0     0
SMALL
No Charge or Current Charge


@<TRIPOS>ATOM
      1 C1           0.1550     0.9400     0.6690 ca         1 887       0.100100
      2 C2           0.9640     1.9740     1.1550 ca         1 887      -0.104000
      3 C3           2.3470     1.9820     0.8910 ca         1 887      -0.036000
      4 C4           2.9420     0.9570     0.1080 ca         1 887      -0.003000
      5 C5           2.1070    -0.0860    -0.3680 ca         1 887      -0.076000
      6 C6           0.7280    -0.0890    -0.0970 ca         1 887      -0.122000
      7 C10          3.1310     3.0190     1.4250 ca         1 887      -0.078000
      8 C11          4.5100     3.0450     1.1940 ca         1 887      -0.113000
      9 C12          5.1120     2.0450     0.4180 ca         1 887      -0.085000
     10 C13          4.3470     0.9940    -0.1460 ca         1 887      -0.129600
     11 O17         -1.1950     0.9660     0.9360 os         1 887      -0.248200
     12 C18         -1.9310    -0.1740     1.1790 ca         1 887       0.186100
     13 C19         -3.2260    -0.3220     0.6430 ca         1 887      -0.092000
     14 C20         -3.9470    -1.5050     0.9370 ca         1 887       0.304000
     15 N21         -3.4340    -2.4840     1.7170 nb         1 887      -0.683000
     16 C22         -2.1960    -2.3260     2.2330 ca         1 887       0.376900
     17 C23         -1.4160    -1.1910     1.9940 ca         1 887      -0.262000
     18 C26         -3.7980     0.6770    -0.1750 ca         1 887      -0.155000
     19 C27         -5.0940     0.5050    -0.7060 ca         1 887       0.117100
     20 C28         -5.8160    -0.6750    -0.4140 ca         1 887       0.147100
     21 C29         -5.2350    -1.6680     0.4050 ca         1 887      -0.184000
     22 O32         -5.6880     1.4630    -1.5130 os         1 887      -0.320100
     23 O33         -7.0870    -0.8220    -0.9460 os         1 887      -0.316100
     24 C34         -7.8990    -1.9850    -0.7060 c3         1 887       0.142900
     25 C38         -5.0310     2.6940    -1.8660 c3         1 887       0.143900
     26 C42          5.0620    -0.0230    -1.0160 c          1 887       0.611700
     27 N43          6.3490    -0.3310    -0.6270 ns         1 887      -0.482900
     28 C44          7.2200    -1.2340    -1.3300 cx         1 887       0.047700
     29 O45          4.5830    -0.4920    -2.0400 o          1 887      -0.585100
     30 C46          8.4600    -1.7090    -0.6140 cx         1 887      -0.134400
     31 C47          7.3040    -2.6550    -0.8300 cx         1 887      -0.134400
     32 H2           0.5130     2.7660     1.7480 ha         1 887       0.132000
     33 H5           2.5030    -0.9170    -0.9400 ha         1 887       0.140000
     34 H6           0.1080    -0.8930    -0.4860 ha         1 887       0.134000
     35 H10          2.6730     3.8020     2.0260 ha         1 887       0.119000
     36 H11          5.1150     3.8500     1.6090 ha         1 887       0.120000
     37 H12          6.1810     2.1170     0.2310 ha         1 887       0.117000
     38 H22         -1.8240    -3.1350     2.8610 h4         1 887       0.016100
     39 H23         -0.4310    -1.1080     2.4420 ha         1 887       0.134000
     40 H26         -3.2280     1.5770    -0.3910 ha         1 887       0.136000
     41 H29         -5.7700    -2.5810     0.6420 ha         1 887       0.139000
     42 H341        -8.1000    -2.1060     0.3660 h1         1 887       0.044033
     43 H342        -8.8620    -1.8880    -1.2230 h1         1 887       0.044033
     44 H343        -7.4040    -2.8900    -1.0790 h1         1 887       0.044033
     45 H381        -4.7960     3.2820    -0.9700 h1         1 887       0.042367
     46 H382        -4.1010     2.4970    -2.4140 h1         1 887       0.042367
     47 H383        -5.6820     3.3000    -2.5090 h1         1 887       0.042367
     48 H43          6.6710     0.1010     0.2300 hn         1 887       0.321500
     49 H44          7.2820    -1.0600    -2.4060 h1         1 887       0.089700
     50 H461         9.3580    -1.8610    -1.2090 hc         1 887       0.077950
     51 H462         8.6400    -1.3510     0.3970 hc         1 887       0.077950
     52 H471         6.7030    -2.9290     0.0340 hc         1 887       0.077950
     53 H472         7.4230    -3.4430    -1.5700 hc         1 887       0.077950
@<TRIPOS>BOND
     1     1     2 ar  
     2     1     6 ar  
     3     1    11 1   
     4     2     3 ar  
     5     2    32 1   
     6     3     4 ar  
     7     3     7 ar  
     8     4     5 ar  
     9     4    10 ar  
    10     5     6 ar  
    11     5    33 1   
    12     6    34 1   
    13     7     8 ar  
    14     7    35 1   
    15     8     9 ar  
    16     8    36 1   
    17     9    10 ar  
    18     9    37 1   
    19    10    26 1   
    20    11    12 1   
    21    12    13 ar  
    22    12    17 ar  
    23    13    14 ar  
    24    13    18 ar  
    25    14    15 ar  
    26    14    21 ar  
    27    15    16 ar  
    28    16    17 ar  
    29    16    38 1   
    30    17    39 1   
    31    18    19 ar  
    32    18    40 1   
    33    19    20 ar  
    34    19    22 1   
    35    20    21 ar  
    36    20    23 1   
    37    21    41 1   
    38    22    25 1   
    39    23    24 1   
    40    24    42 1   
    41    24    43 1   
    42    24    44 1   
    43    25    45 1   
    44    25    46 1   
    45    25    47 1   
    46    26    27 1   
    47    26    29 2   
    48    27    28 1   
    49    27    48 1   
    50    28    30 1   
    51    28    31 1   
    52    28    49 1   
    53    30    31 1   
    54    30    50 1   
    55    30    51 1   
    56    31    52 1   
    57    31    53 1   
@<TRIPOS>SUBSTRUCTURE
     1 887         1 TEMP              0 ****  ****    0 ROOT
