@<TRIPOS>MOLECULE
888
   50    53     1     0     0
SMALL
bcc


@<TRIPOS>ATOM
      1 C1           3.1470     1.0330    -0.6730 ca         1 888       0.224600
      2 C2           3.5000     2.3760    -0.8030 ca         1 888      -0.175000
      3 C3           4.8240     2.7510    -0.6830 ca         1 888      -0.053000
      4 C4           5.8160     1.8070    -0.4200 ca         1 888      -0.165000
      5 C5           5.4750     0.4740    -0.2930 ca         1 888       0.006000
      6 C6           4.1450     0.0930    -0.4310 ca         1 888      -0.339500
      7 S11          3.7000    -1.5990    -0.4060 sy         1 888       1.393700
      8 N12          2.1110    -1.5470    -0.0570 ne         1 888      -0.931300
      9 C13          1.3380    -0.5280    -0.3680 cf         1 888       0.889500
     10 N14          1.8170     0.6650    -0.7400 nu         1 888      -0.724600
     11 C15         -0.1050    -0.7170    -0.2710 cd         1 888      -0.495800
     12 C16         -0.6190    -1.9550     0.0970 cc         1 888       0.377900
     13 C17         -2.0380    -2.1450     0.1910 ca         1 888      -0.182800
     14 C18         -2.8900    -1.0730    -0.1210 ca         1 888       0.136600
     15 N19         -2.3600     0.1380    -0.5180 n          1 888      -0.338000
     16 C20         -1.0090     0.3790    -0.5650 c          1 888       0.749700
     17 C21         -2.5730    -3.3800     0.5880 ca         1 888      -0.030000
     18 C22         -3.9320    -3.5590     0.6790 ca         1 888      -0.174000
     19 C23         -4.7780    -2.4920     0.3730 ca         1 888      -0.054000
     20 C24         -4.2760    -1.2700    -0.0180 ca         1 888      -0.195000
     21 O29          0.1170    -2.9920     0.3820 oh         1 888      -0.484100
     22 O30         -0.6080     1.5080    -0.8690 o          1 888      -0.683500
     23 C31         -3.2530     1.2490    -0.8550 c3         1 888       0.088000
     24 C32         -3.7100     2.0220     0.3750 c3         1 888      -0.095400
     25 C35         -4.6600     3.1730     0.0410 c3         1 888      -0.058700
     26 C38         -5.9900     2.6770    -0.5190 c3         1 888      -0.090100
     27 O46          4.3810    -2.2800     0.6830 o          1 888      -0.610800
     28 O47          3.8740    -2.1480    -1.7430 o          1 888      -0.610800
     29 C7          -4.8940     4.0330     1.2780 c3         1 888      -0.090100
     30 H2           2.7340     3.1190    -0.9840 ha         1 888       0.144000
     31 H3           5.0870     3.7950    -0.7850 ha         1 888       0.137000
     32 H4           6.8470     2.1130    -0.3190 ha         1 888       0.141000
     33 H5           6.2370    -0.2680    -0.0940 ha         1 888       0.154000
     34 H23         -5.8510    -2.6160     0.4450 ha         1 888       0.139000
     35 H311        -2.7230     1.9120    -1.5320 h1         1 888       0.070200
     36 H312        -4.0880     0.8460    -1.4250 h1         1 888       0.070200
     37 H321        -4.1960     1.3500     1.0920 hc         1 888       0.053200
     38 H322        -2.8230     2.4180     0.8780 hc         1 888       0.053200
     39 H35         -4.1780     3.7980    -0.7200 hc         1 888       0.050700
     40 H381        -6.6540     3.5140    -0.7420 hc         1 888       0.034533
     41 H382        -5.8730     2.1100    -1.4430 hc         1 888       0.034533
     42 H383        -6.5010     2.0360     0.2040 hc         1 888       0.034533
     43 H71         -3.9570     4.4310     1.6730 hc         1 888       0.034533
     44 H72         -5.5450     4.8790     1.0520 hc         1 888       0.034533
     45 H73         -5.3700     3.4530     2.0710 hc         1 888       0.034533
     46 H21         -1.9070    -4.1970     0.8260 ha         1 888       0.159000
     47 H22         -4.3390    -4.5110     0.9870 ha         1 888       0.146000
     48 H24         -4.9750    -0.4770    -0.2340 ha         1 888       0.148000
     49 H211         1.0910     1.3720    -0.9120 hn         1 888       0.514800
     50 H212         1.0820    -2.7260     0.2920 ho         1 888       0.528000
@<TRIPOS>BOND
     1     1     2 ar  
     2     1     6 ar  
     3     1    10 1   
     4     2     3 ar  
     5     2    30 1   
     6     3     4 ar  
     7     3    31 1   
     8     4     5 ar  
     9     4    32 1   
    10     5     6 ar  
    11     5    33 1   
    12     6     7 1   
    13     7     8 1   
    14     7    27 2   
    15     7    28 2   
    16     8     9 2   
    17     9    10 1   
    18     9    11 1   
    19    10    49 1   
    20    11    12 2   
    21    11    16 1   
    22    12    13 1   
    23    12    21 1   
    24    13    14 ar  
    25    13    17 ar  
    26    14    15 1   
    27    14    20 ar  
    28    15    16 1   
    29    15    23 1   
    30    16    22 2   
    31    17    18 ar  
    32    17    46 1   
    33    18    19 ar  
    34    18    47 1   
    35    19    20 ar  
    36    19    34 1   
    37    20    48 1   
    38    21    50 1   
    39    23    24 1   
    40    23    35 1   
    41    23    36 1   
    42    24    25 1   
    43    24    37 1   
    44    24    38 1   
    45    25    26 1   
    46    25    29 1   
    47    25    39 1   
    48    26    40 1   
    49    26    41 1   
    50    26    42 1   
    51    29    43 1   
    52    29    44 1   
    53    29    45 1   
@<TRIPOS>SUBSTRUCTURE
     1 888         1 TEMP              0 ****  ****    0 ROOT
