@<TRIPOS>MOLECULE
888
   50    53     1     0     0
SMALL
No Charge or Current Charge


@<TRIPOS>ATOM
      1 C1           3.1500     1.0150    -0.2080 ca         1 888       0.363000
      2 C2           3.4960     2.2930     0.2470 ca         1 888      -0.157000
      3 C3           4.8430     2.6980     0.2230 ca         1 888      -0.035000
      4 C4           5.8280     1.8180    -0.2630 ca         1 888      -0.147000
      5 C5           5.4670     0.5410    -0.7300 ca         1 888       0.024000
      6 C6           4.1130     0.1580    -0.6970 ca         1 888      -0.339500
      7 S11          3.5550    -1.4070    -1.3100 sy         1 888       1.252100
      8 N12          2.1540    -1.6570    -0.4770 ne         1 888      -0.931300
      9 C13          1.3680    -0.6430    -0.5080 cf         1 888       0.889500
     10 N14          1.8640     0.5620    -0.2020 nu         1 888      -0.918200
     11 C15         -0.0570    -0.8500    -0.3020 cd         1 888      -0.495800
     12 C16         -0.5630    -2.0550     0.1390 cc         1 888       0.377900
     13 C17         -1.9980    -2.2230     0.3660 ca         1 888      -0.182800
     14 C18         -2.8880    -1.1830     0.0430 ca         1 888       0.136600
     15 N19         -2.3540     0.0500    -0.4640 n          1 888      -0.271000
     16 C20         -0.9690     0.2700    -0.6230 c          1 888       0.607200
     17 C21         -2.5050    -3.4260     0.9190 ca         1 888      -0.012000
     18 C22         -3.8740    -3.5770     1.1770 ca         1 888      -0.156000
     19 C23         -4.7550    -2.5260     0.9040 ca         1 888      -0.036000
     20 C24         -4.2630    -1.3330     0.3550 ca         1 888      -0.177000
     21 O29          0.2150    -3.1110     0.4120 oh         1 888      -0.523100
     22 O30         -0.5490     1.3510    -1.0150 o          1 888      -0.608000
     23 C31         -3.2810     1.1100    -0.9530 c3         1 888       0.088000
     24 C32         -3.7160     2.0900     0.1640 c3         1 888      -0.095400
     25 C35         -4.6690     3.2220    -0.3060 c3         1 888      -0.058700
     26 C38         -6.0180     2.6840    -0.8420 c3         1 888      -0.090100
     27 O46          4.5330    -2.4230    -0.9120 o          1 888      -0.540000
     28 O47          3.2070    -1.2120    -2.7210 o          1 888      -0.540000
     29 C7          -4.9010     4.2510     0.8230 c3         1 888      -0.090100
     30 H2           2.7320     2.9660     0.6270 ha         1 888       0.126000
     31 H3           5.1230     3.6870     0.5800 ha         1 888       0.119000
     32 H4           6.8710     2.1280    -0.2840 ha         1 888       0.123000
     33 H5           6.2290    -0.1340    -1.1170 ha         1 888       0.136000
     34 H23         -5.8160    -2.6310     1.1220 ha         1 888       0.121000
     35 H311        -2.8060     1.6820    -1.7610 h1         1 888       0.070200
     36 H312        -4.1570     0.6370    -1.4100 h1         1 888       0.070200
     37 H321        -4.1900     1.5330     0.9810 hc         1 888       0.053200
     38 H322        -2.8110     2.5440     0.5860 hc         1 888       0.053200
     39 H35         -4.1750     3.7530    -1.1300 hc         1 888       0.050700
     40 H381        -6.6800     3.5120    -1.1210 hc         1 888       0.034533
     41 H382        -5.8740     2.0650    -1.7340 hc         1 888       0.034533
     42 H383        -6.5280     2.0810    -0.0810 hc         1 888       0.034533
     43 H71         -3.9490     4.6760     1.1640 hc         1 888       0.034533
     44 H72         -5.5310     5.0780     0.4720 hc         1 888       0.034533
     45 H73         -5.3960     3.7840     1.6830 hc         1 888       0.034533
     46 H21         -1.8420    -4.2540     1.1660 ha         1 888       0.141000
     47 H22         -4.2490    -4.5040     1.6060 ha         1 888       0.128000
     48 H24         -4.9780    -0.5370     0.1750 ha         1 888       0.130000
     49 H211         1.1260     1.2640    -0.2350 hn         1 888       0.570000
     50 H212         1.1190    -2.7740     0.1390 ho         1 888       0.567000
@<TRIPOS>BOND
     1     1     2 ar  
     2     1     6 ar  
     3     1    10 1   
     4     2     3 ar  
     5     2    30 1   
     6     3     4 ar  
     7     3    31 1   
     8     4     5 ar  
     9     4    32 1   
    10     5     6 ar  
    11     5    33 1   
    12     6     7 1   
    13     7     8 1   
    14     7    27 2   
    15     7    28 2   
    16     8     9 2   
    17     9    10 1   
    18     9    11 1   
    19    10    49 1   
    20    11    12 2   
    21    11    16 1   
    22    12    13 1   
    23    12    21 1   
    24    13    14 ar  
    25    13    17 ar  
    26    14    15 1   
    27    14    20 ar  
    28    15    16 1   
    29    15    23 1   
    30    16    22 2   
    31    17    18 ar  
    32    17    46 1   
    33    18    19 ar  
    34    18    47 1   
    35    19    20 ar  
    36    19    34 1   
    37    20    48 1   
    38    21    50 1   
    39    23    24 1   
    40    23    35 1   
    41    23    36 1   
    42    24    25 1   
    43    24    37 1   
    44    24    38 1   
    45    25    26 1   
    46    25    29 1   
    47    25    39 1   
    48    26    40 1   
    49    26    41 1   
    50    26    42 1   
    51    29    43 1   
    52    29    44 1   
    53    29    45 1   
@<TRIPOS>SUBSTRUCTURE
     1 888         1 TEMP              0 ****  ****    0 ROOT
