@<TRIPOS>MOLECULE
889
   57    59     1     0     0
SMALL
abcg2


@<TRIPOS>ATOM
      1 O26          3.5740    -1.9120    -0.3380 o          1 889      -0.605100
      2 C25          2.7310    -1.0260    -0.2800 c          1 889       0.612100
      3 C14          3.1410     0.4330    -0.3620 c6         1 889      -0.140700
      4 C20          3.5350     0.9330     1.0340 c6         1 889      -0.067900
      5 C19          4.0080     2.3770     0.9690 c6         1 889       0.165800
      6 N17          5.1090     2.5330     0.0390 n3         1 889      -0.712600
      7 C18          5.6070     3.8890     0.0390 c3         1 889       0.152100
      8 C16          4.7370     2.1080    -1.2970 c6         1 889       0.165800
      9 C15          4.3100     0.6490    -1.3180 c6         1 889      -0.067900
     10 N24          1.4200    -1.2880    -0.0920 n          1 889      -0.425800
     11 C1           0.3870    -0.2320    -0.0470 c5         1 889       0.209300
     12 C21          0.9110    -2.6790     0.1060 c5         1 889       0.216700
     13 C22          1.4920    -3.3380     1.3580 c3         1 889      -0.097100
     14 C23          1.1050    -3.5550    -1.1320 c3         1 889      -0.097100
     15 C3          -0.5330    -2.3540     0.3030 cc         1 889      -0.138300
     16 N4          -1.6680    -3.0140     0.5410 na         1 889       0.016800
     17 N5          -2.7180    -2.1800     0.6230 nc         1 889      -0.507800
     18 C6          -2.2180    -0.9700     0.4370 cd         1 889       0.415900
     19 C2          -0.8300    -1.0340     0.2270 cd         1 889      -0.289300
     20 N7          -2.9720     0.1960     0.4330 ns         1 889      -0.479400
     21 C8          -4.2530     0.3630     0.8580 c          1 889       0.606100
     22 O13         -4.9470    -0.5480     1.2680 o          1 889      -0.549100
     23 C9          -4.7620     1.7840     0.7650 c3         1 889      -0.156400
     24 C10         -5.9680     1.9080    -0.1730 c3         1 889      -0.053700
     25 C12         -6.5100     3.3320    -0.1350 c3         1 889      -0.091600
     26 C11         -5.6040     1.5040    -1.5980 c3         1 889      -0.091600
     27 H14          2.3100     1.0490    -0.7170 hc         1 889       0.050700
     28 H201         2.6940     0.8630     1.7280 hc         1 889       0.059450
     29 H202         4.3360     0.3030     1.4310 hc         1 889       0.059450
     30 H151         5.1540     0.0190    -1.0280 hc         1 889       0.059450
     31 H152         4.0290     0.3710    -2.3360 hc         1 889       0.059450
     32 H191         3.1540     3.0250     0.6970 h1         1 889       0.029450
     33 H192         4.3380     2.6950     1.9600 h1         1 889       0.029450
     34 H181         5.9360     4.1700     1.0410 h1         1 889       0.030367
     35 H182         6.4640     3.9740    -0.6310 h1         1 889       0.030367
     36 H183         4.8560     4.6280    -0.2860 h1         1 889       0.030367
     37 H161         3.9200     2.7330    -1.7040 h1         1 889       0.029450
     38 H162         5.5940     2.2470    -1.9600 h1         1 889       0.029450
     39 H11C         0.5980     0.5000     0.7380 h1         1 889       0.047200
     40 H12C         0.3310     0.3080    -0.9950 h1         1 889       0.047200
     41 H221         1.4010    -2.6780     2.2200 hc         1 889       0.052367
     42 H222         0.9480    -4.2580     1.5760 hc         1 889       0.052367
     43 H223         2.5400    -3.5940     1.2240 hc         1 889       0.052367
     44 H231         2.1590    -3.7390    -1.3230 hc         1 889       0.052367
     45 H232         0.6160    -4.5180    -0.9800 hc         1 889       0.052367
     46 H233         0.6640    -3.0860    -2.0120 hc         1 889       0.052367
     47 H4          -1.8180    -4.0020     0.6580 hn         1 889       0.383000
     48 H7          -2.4790     1.0220     0.1360 hn         1 889       0.320500
     49 H91C        -5.0480     2.0950     1.7740 hc         1 889       0.058200
     50 H92C        -3.9760     2.4700     0.4340 hc         1 889       0.058200
     51 H10         -6.7500     1.2340     0.1910 hc         1 889       0.069700
     52 H121        -5.7620     4.0470    -0.4840 hc         1 889       0.035867
     53 H122        -7.3850     3.4310    -0.7790 hc         1 889       0.035867
     54 H123        -6.8050     3.6220     0.8750 hc         1 889       0.035867
     55 H111        -5.2890     0.4610    -1.6650 hc         1 889       0.035867
     56 H112        -6.4560     1.6300    -2.2660 hc         1 889       0.035867
     57 H113        -4.7890     2.1230    -1.9810 hc         1 889       0.035867
@<TRIPOS>BOND
     1     1     2 2   
     2     2     3 1   
     3     2    10 1   
     4     3     4 1   
     5     3     9 1   
     6     3    27 1   
     7     4     5 1   
     8     4    28 1   
     9     4    29 1   
    10     5     6 1   
    11     5    32 1   
    12     5    33 1   
    13     6     7 1   
    14     6     8 1   
    15     7    34 1   
    16     7    35 1   
    17     7    36 1   
    18     8     9 1   
    19     8    37 1   
    20     8    38 1   
    21     9    30 1   
    22     9    31 1   
    23    10    11 1   
    24    10    12 1   
    25    11    19 1   
    26    11    39 1   
    27    11    40 1   
    28    12    13 1   
    29    12    14 1   
    30    12    15 1   
    31    13    41 1   
    32    13    42 1   
    33    13    43 1   
    34    14    44 1   
    35    14    45 1   
    36    14    46 1   
    37    15    16 1   
    38    15    19 2   
    39    16    17 1   
    40    16    47 1   
    41    17    18 2   
    42    18    19 1   
    43    18    20 1   
    44    20    21 1   
    45    20    48 1   
    46    21    22 2   
    47    21    23 1   
    48    23    24 1   
    49    23    49 1   
    50    23    50 1   
    51    24    25 1   
    52    24    26 1   
    53    24    51 1   
    54    25    52 1   
    55    25    53 1   
    56    25    54 1   
    57    26    55 1   
    58    26    56 1   
    59    26    57 1   
@<TRIPOS>SUBSTRUCTURE
     1 889         1 TEMP              0 ****  ****    0 ROOT
