@<TRIPOS>MOLECULE
889
   57    59     1     0     0
SMALL
No Charge or Current Charge


@<TRIPOS>ATOM
      1 O26          3.5610    -1.9350    -0.3810 o          1 889      -0.605100
      2 C25          2.6930    -1.0770    -0.2820 c          1 889       0.612100
      3 C14          3.0840     0.4220    -0.3770 c6         1 889      -0.140700
      4 C20          3.4210     1.0310     1.0090 c6         1 889      -0.067900
      5 C19          3.7770     2.5330     0.8860 c6         1 889       0.165800
      6 N17          4.8700     2.7650    -0.1000 n3         1 889      -0.712600
      7 C18          5.3000     4.1790    -0.1360 c3         1 889       0.152100
      8 C16          4.5100     2.2500    -1.4510 c6         1 889       0.165800
      9 C15          4.1890     0.7350    -1.4220 c6         1 889      -0.067900
     10 N24          1.3510    -1.4320    -0.0180 n          1 889      -0.425800
     11 C1           0.2270    -0.4440     0.1250 c5         1 889       0.209300
     12 C21          0.8570    -2.8440     0.1490 c5         1 889       0.216700
     13 C22          1.4850    -3.5570     1.3700 c3         1 889      -0.097100
     14 C23          1.0190    -3.6900    -1.1360 c3         1 889      -0.097100
     15 C3          -0.5850    -2.5510     0.4030 cc         1 889      -0.138300
     16 N4          -1.7280    -3.2940     0.6630 na         1 889       0.016800
     17 N5          -2.8490    -2.4630     0.8270 nc         1 889      -0.507800
     18 C6          -2.3540    -1.2420     0.6630 cd         1 889       0.415900
     19 C2          -0.9780    -1.2850     0.4050 cd         1 889      -0.289300
     20 N7          -3.0160    -0.0460     0.7170 ns         1 889      -0.479400
     21 C8          -4.3530     0.1860     0.9420 c          1 889       0.606100
     22 O13         -5.1710    -0.6960     1.1590 o          1 889      -0.549100
     23 C9          -4.7480     1.6700     0.9350 c3         1 889      -0.156400
     24 C10         -5.5660     2.0650    -0.3250 c3         1 889      -0.053700
     25 C12         -6.0960     3.5130    -0.2130 c3         1 889      -0.091600
     26 C11         -4.7650     1.8670    -1.6340 c3         1 889      -0.091600
     27 H14          2.1860     0.9640    -0.6930 hc         1 889       0.050700
     28 H201         2.5780     0.9060     1.7020 hc         1 889       0.059450
     29 H202         4.2710     0.4930     1.4520 hc         1 889       0.059450
     30 H151         5.1040     0.1790    -1.1800 hc         1 889       0.059450
     31 H152         3.8730     0.4040    -2.4200 hc         1 889       0.059450
     32 H191         2.8760     3.0910     0.5900 h1         1 889       0.029450
     33 H192         4.0740     2.9050     1.8780 h1         1 889       0.029450
     34 H181         5.6180     4.5130     0.8610 h1         1 889       0.030367
     35 H182         6.1470     4.3090    -0.8230 h1         1 889       0.030367
     36 H183         4.4810     4.8290    -0.4720 h1         1 889       0.030367
     37 H161         3.6380     2.7940    -1.8430 h1         1 889       0.029450
     38 H162         5.3380     2.4190    -2.1550 h1         1 889       0.029450
     39 H11C         0.3980     0.2510     0.9570 h1         1 889       0.047200
     40 H12C         0.0690     0.1280    -0.7980 h1         1 889       0.047200
     41 H221         1.3860    -2.9460     2.2750 hc         1 889       0.052367
     42 H222         0.9920    -4.5170     1.5620 hc         1 889       0.052367
     43 H223         2.5510    -3.7610     1.2200 hc         1 889       0.052367
     44 H231         2.0730    -3.8910    -1.3600 hc         1 889       0.052367
     45 H232         0.5150    -4.6580    -1.0370 hc         1 889       0.052367
     46 H233         0.5850    -3.1750    -2.0010 hc         1 889       0.052367
     47 H4          -1.7940    -4.3080     0.7350 hn         1 889       0.383000
     48 H7          -2.4710     0.7890     0.5640 hn         1 889       0.320500
     49 H91C        -5.3680     1.8560     1.8200 hc         1 889       0.058200
     50 H92C        -3.8520     2.3010     0.9820 hc         1 889       0.058200
     51 H10         -6.4430     1.4060    -0.3740 hc         1 889       0.069700
     52 H121        -5.2670     4.2300    -0.1600 hc         1 889       0.035867
     53 H122        -6.7150     3.7680    -1.0810 hc         1 889       0.035867
     54 H123        -6.7120     3.6330     0.6870 hc         1 889       0.035867
     55 H111        -4.4740     0.8180    -1.7650 hc         1 889       0.035867
     56 H112        -5.3690     2.1540    -2.5030 hc         1 889       0.035867
     57 H113        -3.8550     2.4800    -1.6320 hc         1 889       0.035867
@<TRIPOS>BOND
     1     1     2 2   
     2     2     3 1   
     3     2    10 1   
     4     3     4 1   
     5     3     9 1   
     6     3    27 1   
     7     4     5 1   
     8     4    28 1   
     9     4    29 1   
    10     5     6 1   
    11     5    32 1   
    12     5    33 1   
    13     6     7 1   
    14     6     8 1   
    15     7    34 1   
    16     7    35 1   
    17     7    36 1   
    18     8     9 1   
    19     8    37 1   
    20     8    38 1   
    21     9    30 1   
    22     9    31 1   
    23    10    11 1   
    24    10    12 1   
    25    11    19 1   
    26    11    39 1   
    27    11    40 1   
    28    12    13 1   
    29    12    14 1   
    30    12    15 1   
    31    13    41 1   
    32    13    42 1   
    33    13    43 1   
    34    14    44 1   
    35    14    45 1   
    36    14    46 1   
    37    15    16 1   
    38    15    19 2   
    39    16    17 1   
    40    16    47 1   
    41    17    18 2   
    42    18    19 1   
    43    18    20 1   
    44    20    21 1   
    45    20    48 1   
    46    21    22 2   
    47    21    23 1   
    48    23    24 1   
    49    23    49 1   
    50    23    50 1   
    51    24    25 1   
    52    24    26 1   
    53    24    51 1   
    54    25    52 1   
    55    25    53 1   
    56    25    54 1   
    57    26    55 1   
    58    26    56 1   
    59    26    57 1   
@<TRIPOS>SUBSTRUCTURE
     1 889         1 TEMP              0 ****  ****    0 ROOT
