@<TRIPOS>MOLECULE
88A
   55    59     1     0     0
SMALL
bcc


@<TRIPOS>ATOM
      1 O2           8.4440    -1.2100     0.3110 o          1 88A      -0.595300
      2 S            7.2530    -1.8620    -0.2290 sy         1 88A       1.090300
      3 O1           7.3070    -2.4220    -1.5770 o          1 88A      -0.595300
      4 C1           6.7630    -3.1480     0.8970 c3         1 88A      -0.225300
      5 C21          5.9070    -0.7100    -0.1590 ca         1 88A      -0.264500
      6 C20          5.9560     0.3440     0.7410 ca         1 88A      -0.038500
      7 C19          4.8900     1.2250     0.8030 ca         1 88A      -0.125500
      8 C22          4.8140    -0.8870    -0.9970 ca         1 88A      -0.038500
      9 C23          3.7520    -0.0030    -0.9220 ca         1 88A      -0.125500
     10 C18          3.7770     1.0660    -0.0240 ca         1 88A       0.028000
     11 C2           2.6650     2.0260     0.0540 cc         1 88A      -0.050000
     12 C6           1.3240     1.5890    -0.0340 cc         1 88A       0.034700
     13 N3           0.7880     0.3890    -0.1850 nd         1 88A      -0.461300
     14 C7          -0.5360     0.6360    -0.1620 cd         1 88A       0.777200
     15 N2          -0.8790     1.9060    -0.0050 nc         1 88A      -0.657100
     16 N1           0.3190     2.5130     0.0760 na         1 88A       0.198000
     17 C5           0.5190     3.8350     0.2490 cc         1 88A      -0.018300
     18 C4           1.8030     4.2840     0.3290 cd         1 88A      -0.196000
     19 C3           2.8730     3.3760     0.2350 cd         1 88A      -0.070000
     20 N4          -1.4090    -0.3900    -0.3000 nu         1 88A      -0.691600
     21 C8          -2.8000    -0.3960    -0.2540 ca         1 88A       0.154600
     22 C13         -3.4460    -1.6070    -0.5240 ca         1 88A      -0.148500
     23 C12         -4.8200    -1.7110    -0.4870 ca         1 88A      -0.140000
     24 C11         -5.6280    -0.6120    -0.1640 ca         1 88A       0.113600
     25 C10         -4.9760     0.5910     0.1030 ca         1 88A      -0.140000
     26 C9          -3.5900     0.7080     0.0500 ca         1 88A      -0.148500
     27 N5          -7.0230    -0.7470    -0.1530 nh         1 88A      -0.635000
     28 C17         -7.8050     0.4570     0.0450 c6         1 88A       0.153300
     29 C16         -9.2670     0.1780    -0.2490 c6         1 88A       0.125900
     30 O3          -9.7700    -0.8750     0.5410 os         1 88A      -0.399600
     31 C15         -9.0270    -2.0530     0.3210 c6         1 88A       0.125900
     32 C14         -7.5570    -1.8540     0.6320 c6         1 88A       0.153300
     33 H11C         6.6390    -2.7260     1.8910 h1         1 88A       0.102700
     34 H12C         5.8320    -3.5940     0.5560 h1         1 88A       0.102700
     35 H13C         7.5560    -3.8960     0.9040 h1         1 88A       0.102700
     36 H20          6.8050     0.4830     1.3970 ha         1 88A       0.156000
     37 H22          4.7830    -1.7010    -1.7090 ha         1 88A       0.156000
     38 H19          4.9200     2.0350     1.5210 ha         1 88A       0.146500
     39 H23          2.9050    -0.1440    -1.5780 ha         1 88A       0.146500
     40 H3           3.8850     3.7560     0.2890 ha         1 88A       0.149000
     41 H4          -0.9660    -1.2820    -0.4620 hn         1 88A       0.456800
     42 H5          -0.3590     4.4590     0.3140 h4         1 88A       0.183000
     43 HB           1.9870     5.3400     0.4580 ha         1 88A       0.159000
     44 H13         -2.8610    -2.4830    -0.7800 ha         1 88A       0.144000
     45 H9          -3.1430     1.6660     0.2650 ha         1 88A       0.144000
     46 H12         -5.2680    -2.6650    -0.7330 ha         1 88A       0.133000
     47 H10         -5.5370     1.4770     0.3670 ha         1 88A       0.133000
     48 H171        -7.7030     0.8510     1.0690 h1         1 88A       0.046200
     49 H172        -7.4660     1.2360    -0.6410 h1         1 88A       0.046200
     50 H141        -7.0340    -2.7790     0.3940 h1         1 88A       0.046200
     51 H142        -7.4230    -1.6710     1.7100 h1         1 88A       0.046200
     52 H161        -9.8610     1.0660    -0.0290 h1         1 88A       0.052700
     53 H162        -9.3850    -0.0540    -1.3170 h1         1 88A       0.052700
     54 H151        -9.4380    -2.8290     0.9680 h1         1 88A       0.052700
     55 H152        -9.1340    -2.3860    -0.7210 h1         1 88A       0.052700
@<TRIPOS>BOND
     1     1     2 2   
     2     2     3 2   
     3     2     4 1   
     4     2     5 1   
     5     4    33 1   
     6     4    34 1   
     7     4    35 1   
     8     5     6 ar  
     9     5     8 ar  
    10     6     7 ar  
    11     6    36 1   
    12     7    10 ar  
    13     7    38 1   
    14     8     9 ar  
    15     8    37 1   
    16     9    10 ar  
    17     9    39 1   
    18    10    11 1   
    19    11    12 1   
    20    11    19 2   
    21    12    13 2   
    22    12    16 1   
    23    13    14 1   
    24    14    15 2   
    25    14    20 1   
    26    15    16 1   
    27    16    17 1   
    28    17    18 2   
    29    17    42 1   
    30    18    19 1   
    31    18    43 1   
    32    19    40 1   
    33    20    21 1   
    34    20    41 1   
    35    21    22 ar  
    36    21    26 ar  
    37    22    23 ar  
    38    22    44 1   
    39    23    24 ar  
    40    23    46 1   
    41    24    25 ar  
    42    24    27 1   
    43    25    26 ar  
    44    25    47 1   
    45    26    45 1   
    46    27    28 1   
    47    27    32 1   
    48    28    29 1   
    49    28    48 1   
    50    28    49 1   
    51    29    30 1   
    52    29    52 1   
    53    29    53 1   
    54    30    31 1   
    55    31    32 1   
    56    31    54 1   
    57    31    55 1   
    58    32    50 1   
    59    32    51 1   
@<TRIPOS>SUBSTRUCTURE
     1 88A         1 TEMP              0 ****  ****    0 ROOT
