@<TRIPOS>MOLECULE
88A
   55    59     1     0     0
SMALL
No Charge or Current Charge


@<TRIPOS>ATOM
      1 O2           8.6730    -1.2540    -0.2950 o          1 88A      -0.524500
      2 S            7.4080    -1.9820    -0.4610 sy         1 88A       1.059500
      3 O1           7.1640    -2.8280    -1.6370 o          1 88A      -0.524500
      4 C1           7.2340    -3.0390     0.9750 c3         1 88A      -0.336100
      5 C21          6.0370    -0.8200    -0.2820 ca         1 88A      -0.264500
      6 C20          6.2110     0.3810     0.4310 ca         1 88A      -0.020500
      7 C19          5.1400     1.2790     0.5750 ca         1 88A      -0.107500
      8 C22          4.7790    -1.1140    -0.8390 ca         1 88A      -0.020500
      9 C23          3.7110    -0.2120    -0.6880 ca         1 88A      -0.107500
     10 C18          3.8680     1.0040     0.0150 ca         1 88A       0.028000
     11 C2           2.7330     1.9480     0.1690 cc         1 88A      -0.050000
     12 C6           1.3380     1.6140     0.0920 cc         1 88A      -0.016000
     13 N3           0.7230     0.4510    -0.0120 nd         1 88A      -0.461300
     14 C7          -0.6050     0.8040     0.0180 cd         1 88A       0.777200
     15 N2          -0.9000     2.0800     0.1220 nc         1 88A      -0.657100
     16 N1           0.3560     2.5670     0.1820 na         1 88A       0.299400
     17 C5           0.6220     3.9290     0.3150 cc         1 88A      -0.051000
     18 C4           1.9730     4.2670     0.3420 cd         1 88A      -0.178000
     19 C3           3.0370     3.2960     0.2620 cd         1 88A      -0.052000
     20 N4          -1.5130    -0.1790    -0.1130 nu         1 88A      -0.885200
     21 C8          -2.9070    -0.2600    -0.0730 ca         1 88A       0.293000
     22 C13         -3.5160    -1.4430    -0.5250 ca         1 88A      -0.130500
     23 C12         -4.9160    -1.5880    -0.5030 ca         1 88A      -0.122000
     24 C11         -5.7390    -0.5520    -0.0210 ca         1 88A       0.252000
     25 C10         -5.1280     0.6320     0.4390 ca         1 88A      -0.122000
     26 C9          -3.7270     0.7760     0.4170 ca         1 88A      -0.130500
     27 N5          -7.1480    -0.7120    -0.0070 nh         1 88A      -0.773400
     28 C17         -8.0650     0.4740    -0.0760 c6         1 88A       0.153300
     29 C16         -9.4930     0.0890    -0.5680 c6         1 88A       0.149100
     30 O3         -10.0270    -1.0080     0.2090 os         1 88A      -0.446000
     31 C15         -9.2060    -2.1970     0.1230 c6         1 88A       0.149100
     32 C14         -7.7650    -1.9140     0.6460 c6         1 88A       0.153300
     33 H11C         7.3150    -2.4140     1.8700 h1         1 88A       0.102700
     34 H12C         6.2530    -3.5220     0.9270 h1         1 88A       0.102700
     35 H13C         8.0350    -3.7850     0.9490 h1         1 88A       0.102700
     36 H20          7.1720     0.6220     0.8840 ha         1 88A       0.138000
     37 H22          4.6200    -2.0370    -1.3940 ha         1 88A       0.138000
     38 H19          5.3090     2.1760     1.1640 ha         1 88A       0.128500
     39 H23          2.7670    -0.4630    -1.1590 ha         1 88A       0.128500
     40 H3           4.0590     3.6560     0.2500 ha         1 88A       0.131000
     41 H4          -1.0340    -1.0490    -0.3180 hn         1 88A       0.512000
     42 H5          -0.2160     4.6100     0.3730 h4         1 88A       0.165000
     43 HB           2.2380     5.3170     0.4200 ha         1 88A       0.141000
     44 H13         -2.9050    -2.2580    -0.9050 ha         1 88A       0.126000
     45 H9          -3.2960     1.6940     0.7990 ha         1 88A       0.126000
     46 H12         -5.3610    -2.5050    -0.8760 ha         1 88A       0.115000
     47 H10         -5.7320     1.4440     0.8310 ha         1 88A       0.115000
     48 H171        -8.1490     0.9410     0.9170 h1         1 88A       0.046200
     49 H172        -7.6580     1.2310    -0.7620 h1         1 88A       0.046200
     50 H141        -7.1560    -2.8130     0.4720 h1         1 88A       0.046200
     51 H142        -7.8090    -1.7620     1.7340 h1         1 88A       0.046200
     52 H161       -10.1640     0.9550    -0.4780 h1         1 88A       0.052700
     53 H162        -9.4560    -0.2030    -1.6270 h1         1 88A       0.052700
     54 H151        -9.6680    -2.9980     0.7180 h1         1 88A       0.052700
     55 H152        -9.1640    -2.5320    -0.9240 h1         1 88A       0.052700
@<TRIPOS>BOND
     1     1     2 2   
     2     2     3 2   
     3     2     4 1   
     4     2     5 1   
     5     4    33 1   
     6     4    34 1   
     7     4    35 1   
     8     5     6 ar  
     9     5     8 ar  
    10     6     7 ar  
    11     6    36 1   
    12     7    10 ar  
    13     7    38 1   
    14     8     9 ar  
    15     8    37 1   
    16     9    10 ar  
    17     9    39 1   
    18    10    11 1   
    19    11    12 1   
    20    11    19 2   
    21    12    13 2   
    22    12    16 1   
    23    13    14 1   
    24    14    15 2   
    25    14    20 1   
    26    15    16 1   
    27    16    17 1   
    28    17    18 2   
    29    17    42 1   
    30    18    19 1   
    31    18    43 1   
    32    19    40 1   
    33    20    21 1   
    34    20    41 1   
    35    21    22 ar  
    36    21    26 ar  
    37    22    23 ar  
    38    22    44 1   
    39    23    24 ar  
    40    23    46 1   
    41    24    25 ar  
    42    24    27 1   
    43    25    26 ar  
    44    25    47 1   
    45    26    45 1   
    46    27    28 1   
    47    27    32 1   
    48    28    29 1   
    49    28    48 1   
    50    28    49 1   
    51    29    30 1   
    52    29    52 1   
    53    29    53 1   
    54    30    31 1   
    55    31    32 1   
    56    31    54 1   
    57    31    55 1   
    58    32    50 1   
    59    32    51 1   
@<TRIPOS>SUBSTRUCTURE
     1 88A         1 TEMP              0 ****  ****    0 ROOT
