@<TRIPOS>MOLECULE
88B
   16    15     1     0     0
SMALL
No Charge or Current Charge


@<TRIPOS>ATOM
      1 N           11.4840    39.7920   -10.0820 n8         1 88B      -0.742200
      2 C           11.4220    40.5200    -7.6430 c          1 88B       0.624100
      3 O           10.5610    41.3750    -7.8220 o          1 88B      -0.630100
      4 C1          12.0850    40.2880    -6.2710 c3         1 88B      -0.139400
      5 C2          11.1420    39.5910    -5.2470 c3         1 88B      -0.207400
      6 C3          10.8750    38.1300    -5.6520 c          1 88B       0.716000
      7 N1          11.9170    39.7260    -8.6830 ns         1 88B      -0.406300
      8 O1           9.9110    37.8980    -6.3630 o          1 88B      -0.742500
      9 O2          11.6730    37.2790    -5.2920 o          1 88B      -0.742500
     10 H1          12.2730    40.0060   -10.7100 hn         1 88B       0.383000
     11 H2          11.0910    38.8910   -10.3950 hn         1 88B       0.383000
     12 H3          12.9880    39.6770    -6.3850 hc         1 88B       0.043700
     13 H4          12.3620    41.2660    -5.8590 hc         1 88B       0.043700
     14 H5          11.6840    39.6190    -4.2940 hc         1 88B       0.030700
     15 H6          10.2100    40.1700    -5.2360 hc         1 88B       0.030700
     16 H7          12.6370    39.0510    -8.4110 hn         1 88B       0.354500
@<TRIPOS>BOND
     1     1     7 1   
     2     1    10 1   
     3     1    11 1   
     4     2     3 2   
     5     2     4 1   
     6     2     7 1   
     7     4     5 1   
     8     4    12 1   
     9     4    13 1   
    10     5     6 1   
    11     5    14 1   
    12     5    15 1   
    13     6     8 1   
    14     6     9 1   
    15     7    16 1   
@<TRIPOS>SUBSTRUCTURE
     1 88B         1 TEMP              0 ****  ****    0 ROOT
