@<TRIPOS>MOLECULE
88B
   16    15     1     0     0
SMALL
abcg2


@<TRIPOS>ATOM
      1 N           11.6340    39.7600    -9.8690 n8         1 88B      -0.742200
      2 C           11.6500    40.6760    -7.6690 c          1 88B       0.624100
      3 O           11.0460    41.6920    -7.9800 o          1 88B      -0.630100
      4 C1          12.0740    40.3930    -6.2410 c3         1 88B      -0.139400
      5 C2          11.0420    39.5650    -5.4730 c3         1 88B      -0.207400
      6 C3          10.8870    38.0980    -5.9230 c          1 88B       0.716000
      7 N1          11.9950    39.7010    -8.5350 ns         1 88B      -0.406300
      8 O1           9.7920    37.5600    -5.6780 o          1 88B      -0.742500
      9 O2          11.8730    37.5620    -6.4790 o          1 88B      -0.742500
     10 H1          12.4400    39.5330   -10.4360 hn         1 88B       0.383000
     11 H2          10.9200    39.0690   -10.0650 hn         1 88B       0.383000
     12 H3          13.0360    39.8790    -6.2160 hc         1 88B       0.043700
     13 H4          12.2070    41.3560    -5.7480 hc         1 88B       0.043700
     14 H5          11.3480    39.5480    -4.4210 hc         1 88B       0.030700
     15 H6          10.0710    40.0640    -5.4850 hc         1 88B       0.030700
     16 H7          12.3000    38.8230    -8.1280 hn         1 88B       0.354500
@<TRIPOS>BOND
     1     1     7 1   
     2     1    10 1   
     3     1    11 1   
     4     2     3 2   
     5     2     4 1   
     6     2     7 1   
     7     4     5 1   
     8     4    12 1   
     9     4    13 1   
    10     5     6 1   
    11     5    14 1   
    12     5    15 1   
    13     6     8 1   
    14     6     9 1   
    15     7    16 1   
@<TRIPOS>SUBSTRUCTURE
     1 88B         1 TEMP              0 ****  ****    0 ROOT
