@<TRIPOS>MOLECULE
88C
   67    70     1     0     0
SMALL
No Charge or Current Charge


@<TRIPOS>ATOM
      1 C10        171.0680   177.6570   182.4050 ca         1 88C      -0.033000
      2 N12        171.0870   175.2000   182.1360 nu         1 88C      -0.934900
      3 C13        172.0990   174.6830   182.9400 ca         1 88C       0.386900
      4 C15        173.3820   172.8630   183.4610 ca         1 88C       0.150900
      5 C17        173.6090   174.9490   184.6650 cp         1 88C       0.222500
      6 C20        174.7820   178.0650   186.5720 ca         1 88C       0.335900
      7 C22        175.4190   176.2160   187.8360 cp         1 88C       0.410500
      8 C24        175.7630   174.4440   189.6410 ca         1 88C      -0.053500
      9 C26        177.3690   174.7470   191.4610 ca         1 88C       0.009000
     10 C28        178.9360   174.6830   193.4970 c          1 88C       0.665100
     11 C01        170.8130   179.0440   185.9240 c3         1 88C      -0.109100
     12 C02        169.7810   179.8370   185.0950 c3         1 88C       0.221800
     13 C04        170.9690   182.0480   184.9190 c3         1 88C       0.221800
     14 C05        170.0410   182.7850   185.9050 c3         1 88C      -0.109100
     15 C09        170.3850   178.8930   182.3100 ca         1 88C      -0.235500
     16 C11        170.4490   176.4470   182.0320 ca         1 88C       0.300000
     17 C16        174.0120   173.6070   184.4720 ca         1 88C      -0.258000
     18 C18        174.2200   175.8490   185.7010 cp         1 88C      -0.127500
     19 C19        174.1970   177.2620   185.5810 ca         1 88C      -0.120000
     20 C23        176.0900   175.7090   189.0850 cp         1 88C      -0.181500
     21 C25        176.3940   173.9750   190.8060 ca         1 88C      -0.162500
     22 C31        178.6400   172.5310   194.8030 c3         1 88C       0.095300
     23 C32        177.7020   176.0080   190.9270 ca         1 88C      -0.162500
     24 C33        177.0720   176.4800   189.7630 ca         1 88C      -0.053500
     25 C34        174.8550   175.3470   186.8650 ca         1 88C      -0.139000
     26 C36        169.1420   176.4890   181.5180 ca         1 88C      -0.111000
     27 C37        168.4570   177.7120   181.4080 ca         1 88C      -0.098000
     28 C38        169.0650   178.9150   181.8060 ca         1 88C       0.181000
     29 N03        170.3390   180.9040   184.2190 n3         1 88C      -0.784500
     30 N14        172.4190   173.4030   182.6900 nb         1 88C      -0.235000
     31 N21        175.3830   177.5580   187.6700 nb         1 88C      -0.664000
     32 N30        179.2430   173.8430   194.5420 ns         1 88C      -0.532900
     33 N35        172.6430   175.4710   183.8850 nb         1 88C      -0.234000
     34 O07        171.0230   181.4230   181.8300 o          1 88C      -0.542500
     35 O08        172.5740   180.0430   183.3310 o          1 88C      -0.542500
     36 O29        179.5110   175.7540   193.3900 o          1 88C      -0.622100
     37 S06        171.2310   180.3920   182.8530 sy         1 88C       1.183600
     38 Cl39       168.1090   180.3920   181.6760 cl         1 88C      -0.168000
     39 H1         172.0930   177.6400   182.7570 ha         1 88C       0.167000
     40 H2         170.6470   174.4710   181.5720 hn         1 88C       0.515000
     41 H3         173.6540   171.8280   183.2620 h4         1 88C       0.026100
     42 H4         174.7740   179.1510   186.4800 h4         1 88C       0.027100
     43 H5         175.0020   173.8190   189.1810 ha         1 88C       0.122000
     44 H6         170.2970   178.3360   186.5830 hc         1 88C       0.044533
     45 H7         171.4810   178.4670   185.2770 hc         1 88C       0.044533
     46 H8         171.4170   179.7090   186.5520 hc         1 88C       0.044533
     47 H9         169.0660   180.2810   185.8000 h1         1 88C       0.055450
     48 H10        169.1860   179.1230   184.5130 h1         1 88C       0.055450
     49 H11        171.2950   182.7930   184.1800 h1         1 88C       0.055450
     50 H12        171.8720   181.7260   185.4560 h1         1 88C       0.055450
     51 H13        170.5250   183.7000   186.2630 hc         1 88C       0.044533
     52 H14        169.1010   183.0640   185.4140 hc         1 88C       0.044533
     53 H15        169.8130   182.1630   186.7780 hc         1 88C       0.044533
     54 H16        174.7980   173.1560   185.0690 ha         1 88C       0.141000
     55 H17        173.7470   177.7460   184.7190 ha         1 88C       0.157000
     56 H18        176.1160   173.0020   191.2040 ha         1 88C       0.127500
     57 H19        179.0870   172.0990   195.7080 h1         1 88C       0.037367
     58 H20        177.5590   172.6410   194.9540 h1         1 88C       0.037367
     59 H21        178.8280   171.8590   193.9550 h1         1 88C       0.037367
     60 H22        178.4470   176.6420   191.3980 ha         1 88C       0.127500
     61 H23        177.3590   177.4560   189.3770 ha         1 88C       0.122000
     62 H24        174.9130   174.2760   187.0220 ha         1 88C       0.122000
     63 H25        168.6460   175.5710   181.2140 ha         1 88C       0.121000
     64 H26        167.4410   177.7280   181.0210 ha         1 88C       0.132000
     65 H27        177.6020   173.2940   192.8850 hn         1 88C       0.148000
     66 H28        179.9540   174.1840   195.1780 hn         1 88C       0.335500
     67 N27        177.9610   174.2040   192.6330 ns         1 88C      -0.163000
@<TRIPOS>BOND
     1     1    15 ar  
     2     1    16 ar  
     3     1    39 1   
     4     2     3 1   
     5     2    16 1   
     6     2    40 1   
     7     3    30 ar  
     8     3    33 ar  
     9     4    17 ar  
    10     4    30 ar  
    11     4    41 1   
    12     5    17 ar  
    13     5    18 1   
    14     5    33 ar  
    15     6    19 ar  
    16     6    31 ar  
    17     6    42 1   
    18     7    20 1   
    19     7    25 ar  
    20     7    31 ar  
    21     8    20 ar  
    22     8    21 ar  
    23     8    43 1   
    24     9    21 ar  
    25     9    23 ar  
    26     9    67 1   
    27    10    32 1   
    28    10    36 2   
    29    10    67 1   
    30    11    12 1   
    31    11    44 1   
    32    11    45 1   
    33    11    46 1   
    34    12    29 1   
    35    12    47 1   
    36    12    48 1   
    37    13    14 1   
    38    13    29 1   
    39    13    49 1   
    40    13    50 1   
    41    14    51 1   
    42    14    52 1   
    43    14    53 1   
    44    15    28 ar  
    45    15    37 1   
    46    16    26 ar  
    47    17    54 1   
    48    18    19 ar  
    49    18    25 ar  
    50    19    55 1   
    51    20    24 ar  
    52    21    56 1   
    53    22    32 1   
    54    22    57 1   
    55    22    58 1   
    56    22    59 1   
    57    23    24 ar  
    58    23    60 1   
    59    24    61 1   
    60    25    62 1   
    61    26    27 ar  
    62    26    63 1   
    63    27    28 ar  
    64    27    64 1   
    65    28    38 1   
    66    29    37 1   
    67    32    66 1   
    68    34    37 2   
    69    35    37 2   
    70    65    67 1   
@<TRIPOS>SUBSTRUCTURE
     1 88C         1 TEMP              0 ****  ****    0 ROOT
