@<TRIPOS>MOLECULE
88C
   67    70     1     0     0
SMALL
bcc


@<TRIPOS>ATOM
      1 C10        171.1680   177.5690   182.5430 ca         1 88C      -0.051000
      2 N12        171.0190   175.1480   182.2130 nu         1 88C      -0.741300
      3 C13        172.0010   174.6410   183.0130 ca         1 88C       0.912900
      4 C15        173.2210   172.8270   183.5530 ca         1 88C       0.479200
      5 C17        173.4980   174.8650   184.7030 cp         1 88C       0.550800
      6 C20        174.7470   177.8940   186.5280 ca         1 88C       0.401200
      7 C22        175.2960   176.0730   187.7960 cp         1 88C       0.475800
      8 C24        175.5910   174.3180   189.5690 ca         1 88C      -0.071500
      9 C26        177.1940   174.5950   191.3620 ca         1 88C       0.101600
     10 C28        178.5140   174.6550   193.4650 c          1 88C       0.799100
     11 C01        171.9910   180.4630   186.4640 c3         1 88C      -0.109100
     12 C02        170.9170   179.9490   185.5210 c3         1 88C       0.221800
     13 C04        170.3910   182.1670   184.4630 c3         1 88C       0.221800
     14 C05        169.1380   182.3480   185.3010 c3         1 88C      -0.109100
     15 C09        170.5500   178.8090   182.5010 ca         1 88C      -0.235500
     16 C11        170.4620   176.4180   182.1960 ca         1 88C       0.161600
     17 C16        173.8780   173.5380   184.5460 ca         1 88C      -0.406600
     18 C18        174.1140   175.7440   185.7220 cp         1 88C      -0.127500
     19 C19        174.1190   177.1260   185.5630 ca         1 88C      -0.203300
     20 C23        175.9330   175.5550   189.0220 cp         1 88C      -0.181500
     21 C25        176.2030   173.8500   190.7150 ca         1 88C      -0.180500
     22 C31        178.8180   172.4010   194.5160 c3         1 88C       0.095300
     23 C32        177.5430   175.8370   190.8230 ca         1 88C      -0.180500
     24 C33        176.9120   176.2980   189.6800 ca         1 88C      -0.071500
     25 C34        174.7150   175.2170   186.8590 ca         1 88C      -0.222300
     26 C36        169.1440   176.5500   181.7610 ca         1 88C      -0.129000
     27 C37        168.5350   177.7890   181.7070 ca         1 88C      -0.116000
     28 C38        169.2250   178.9270   182.0910 ca         1 88C       0.089400
     29 N03        170.7410   180.7530   184.3110 n3         1 88C      -0.784500
     30 N14        172.2860   173.3550   182.7860 nb         1 88C      -0.761000
     31 N21        175.3170   177.3930   187.6140 nb         1 88C      -0.664000
     32 N30        178.9710   173.8350   194.4390 ns         1 88C      -0.599900
     33 N35        172.5650   175.4120   183.9300 nb         1 88C      -0.760000
     34 O07        171.3940   181.2480   181.9310 o          1 88C      -0.613300
     35 O08        172.8540   179.7450   183.2770 o          1 88C      -0.613300
     36 O29        178.7340   175.8580   193.4700 o          1 88C      -0.622100
     37 S06        171.5170   180.2360   182.9660 sy         1 88C       1.325200
     38 CL39       168.3960   180.4380   182.0570 cl         1 88C      -0.076400
     39 H1         172.2000   177.4990   182.8430 ha         1 88C       0.185000
     40 H2         170.5570   174.4520   181.6460 hn         1 88C       0.459800
     41 H3         173.4660   171.7860   183.3720 h4         1 88C       0.026100
     42 H4         174.7900   178.9710   186.4160 h4         1 88C       0.027100
     43 H5         174.8170   173.7090   189.1200 ha         1 88C       0.140000
     44 H6         172.0900   179.7810   187.3090 hc         1 88C       0.044533
     45 H7         172.9580   180.5290   185.9670 hc         1 88C       0.044533
     46 H8         171.7430   181.4470   186.8630 hc         1 88C       0.044533
     47 H9         169.9540   179.9110   186.0320 h1         1 88C       0.055450
     48 H10        171.1330   178.9180   185.2360 h1         1 88C       0.055450
     49 H11        170.2170   182.5850   183.4740 h1         1 88C       0.055450
     50 H12        171.2210   182.7270   184.9030 h1         1 88C       0.055450
     51 H13        168.8620   183.4020   185.3010 hc         1 88C       0.044533
     52 H14        168.3040   181.7800   184.8890 hc         1 88C       0.044533
     53 H15        169.2790   182.0510   186.3400 hc         1 88C       0.044533
     54 H16        174.6510   173.0740   185.1380 ha         1 88C       0.159000
     55 H17        173.6680   177.5990   184.7030 ha         1 88C       0.175000
     56 H18        175.9040   172.8910   191.1220 ha         1 88C       0.145500
     57 H19        179.3410   172.0510   195.4010 h1         1 88C       0.037367
     58 H20        177.7730   172.0970   194.6130 h1         1 88C       0.037367
     59 H21        179.2520   171.8920   193.6530 h1         1 88C       0.037367
     60 H22        178.3090   176.4420   191.2790 ha         1 88C       0.145500
     61 H23        177.2030   177.2610   189.2810 ha         1 88C       0.140000
     62 H24        174.7350   174.1490   187.0210 ha         1 88C       0.140000
     63 H25        168.5800   175.6720   181.4700 ha         1 88C       0.139000
     64 H26        167.5070   177.8670   181.3780 ha         1 88C       0.150000
     65 H27        177.5450   173.0550   192.6290 hn         1 88C       0.314500
     66 H28        179.4920   174.2930   195.1680 hn         1 88C       0.335500
     67 N27        177.7880   174.0230   192.4810 ns         1 88C      -0.489100
@<TRIPOS>BOND
     1     1    15 ar  
     2     1    16 ar  
     3     1    39 1   
     4     2     3 1   
     5     2    16 1   
     6     2    40 1   
     7     3    30 ar  
     8     3    33 ar  
     9     4    17 ar  
    10     4    30 ar  
    11     4    41 1   
    12     5    17 ar  
    13     5    18 1   
    14     5    33 ar  
    15     6    19 ar  
    16     6    31 ar  
    17     6    42 1   
    18     7    20 1   
    19     7    25 ar  
    20     7    31 ar  
    21     8    20 ar  
    22     8    21 ar  
    23     8    43 1   
    24     9    21 ar  
    25     9    23 ar  
    26     9    67 1   
    27    10    32 1   
    28    10    36 2   
    29    10    67 1   
    30    11    12 1   
    31    11    44 1   
    32    11    45 1   
    33    11    46 1   
    34    12    29 1   
    35    12    47 1   
    36    12    48 1   
    37    13    14 1   
    38    13    29 1   
    39    13    49 1   
    40    13    50 1   
    41    14    51 1   
    42    14    52 1   
    43    14    53 1   
    44    15    28 ar  
    45    15    37 1   
    46    16    26 ar  
    47    17    54 1   
    48    18    19 ar  
    49    18    25 ar  
    50    19    55 1   
    51    20    24 ar  
    52    21    56 1   
    53    22    32 1   
    54    22    57 1   
    55    22    58 1   
    56    22    59 1   
    57    23    24 ar  
    58    23    60 1   
    59    24    61 1   
    60    25    62 1   
    61    26    27 ar  
    62    26    63 1   
    63    27    28 ar  
    64    27    64 1   
    65    28    38 1   
    66    29    37 1   
    67    32    66 1   
    68    34    37 2   
    69    35    37 2   
    70    65    67 1   
@<TRIPOS>SUBSTRUCTURE
     1 88C         1 TEMP              0 ****  ****    0 ROOT
