@<TRIPOS>MOLECULE
88D
   46    48     1     0     0
SMALL
No Charge or Current Charge


@<TRIPOS>ATOM
      1 CAA          5.3430     1.6660     0.4230 c3         1 88D      -0.048800
      2 CAW          5.4830     0.1620     0.1960 ca         1 88D      -0.105300
      3 CAM          6.7720    -0.4020     0.1160 ca         1 88D      -0.093000
      4 CAG          6.9360    -1.7790    -0.0930 ca         1 88D      -0.119000
      5 CAH          5.8100    -2.6050    -0.2200 ca         1 88D      -0.096000
      6 CAN          4.5200    -2.0540    -0.1430 ca         1 88D      -0.107000
      7 CAX          4.3420    -0.6660     0.0600 ca         1 88D      -0.036000
      8 NAQ          3.0530    -0.0650     0.1520 ns         1 88D      -0.156000
      9 C            1.7760    -0.5320    -0.1340 c          1 88D       0.591100
     10 O            1.5380    -1.6490    -0.5870 o          1 88D      -0.578100
     11 CA           0.6500     0.5000     0.1590 c3         1 88D       0.028700
     12 CB           0.7100     1.7020    -0.8230 c3         1 88D      -0.042100
     13 CG          -0.4000     2.7220    -0.6000 ca         1 88D      -0.087300
     14 CD1         -0.2700     3.7030     0.4030 ca         1 88D      -0.099500
     15 CE1         -1.2970     4.6380     0.6180 ca         1 88D      -0.105000
     16 CZ          -2.4610     4.5980    -0.1680 ca         1 88D      -0.105000
     17 CE2         -2.5970     3.6230    -1.1700 ca         1 88D      -0.105000
     18 CD2         -1.5690     2.6880    -1.3860 ca         1 88D      -0.099500
     19 N           -0.6820    -0.1510     0.1160 ns         1 88D      -0.489900
     20 CAT         -1.7220     0.1090     0.9790 c          1 88D       0.649700
     21 OAB         -1.6080     0.8500     1.9450 o          1 88D      -0.596100
     22 CAY         -2.9700    -0.6020     0.6250 cc         1 88D      -0.180600
     23 SE          -3.1610    -1.6700    -0.7660 ss         1 88D      -0.007000
     24 CAJ         -4.8450    -1.9680    -0.3480 cc         1 88D      -0.114000
     25 CAI         -5.1980    -1.2780     0.7850 cd         1 88D      -0.143000
     26 CAO         -4.1410    -0.5040     1.3370 cd         1 88D      -0.061000
     27 H1           4.7800     2.1390    -0.3910 hc         1 88D       0.043367
     28 H2           4.8190     1.8770     1.3630 hc         1 88D       0.043367
     29 H3           6.3180     2.1640     0.4760 hc         1 88D       0.043367
     30 H4           7.6530     0.2290     0.2170 ha         1 88D       0.112000
     31 H5           7.9340    -2.2070    -0.1520 ha         1 88D       0.115000
     32 H6           5.9350    -3.6740    -0.3750 ha         1 88D       0.116000
     33 H7           3.6730    -2.7260    -0.2300 ha         1 88D       0.130000
     34 H8           3.0760     0.8880     0.4930 hn         1 88D       0.155000
     35 H9           0.8280     0.8740     1.1760 h1         1 88D       0.095700
     36 H10          1.6850     2.1980    -0.7330 hc         1 88D       0.058200
     37 H11          0.6640     1.3200    -1.8520 hc         1 88D       0.058200
     38 H12          0.6260     3.7380     1.0190 ha         1 88D       0.108500
     39 H13         -1.1910     5.3920     1.3950 ha         1 88D       0.113500
     40 H14         -3.2570     5.3210    -0.0000 ha         1 88D       0.113000
     41 H15         -3.4980     3.5890    -1.7780 ha         1 88D       0.113500
     42 H16         -1.6850     1.9340    -2.1610 ha         1 88D       0.108500
     43 H17         -0.8690    -0.8180    -0.6220 hn         1 88D       0.336500
     44 H18         -5.4470    -2.6260    -0.9640 h4         1 88D       0.150000
     45 H19         -6.1930    -1.3190     1.2180 ha         1 88D       0.139000
     46 H20         -4.2500     0.1050     2.2310 ha         1 88D       0.151000
@<TRIPOS>BOND
     1     1     2 1   
     2     1    27 1   
     3     1    28 1   
     4     1    29 1   
     5     2     3 ar  
     6     2     7 ar  
     7     3     4 ar  
     8     3    30 1   
     9     4     5 ar  
    10     4    31 1   
    11     5     6 ar  
    12     5    32 1   
    13     6     7 ar  
    14     6    33 1   
    15     7     8 1   
    16     8     9 1   
    17     8    34 1   
    18     9    10 2   
    19     9    11 1   
    20    11    12 1   
    21    11    19 1   
    22    11    35 1   
    23    12    13 1   
    24    12    36 1   
    25    12    37 1   
    26    13    14 ar  
    27    13    18 ar  
    28    14    15 ar  
    29    14    38 1   
    30    15    16 ar  
    31    15    39 1   
    32    16    17 ar  
    33    16    40 1   
    34    17    18 ar  
    35    17    41 1   
    36    18    42 1   
    37    19    20 1   
    38    19    43 1   
    39    20    21 2   
    40    20    22 1   
    41    22    23 1   
    42    22    26 2   
    43    23    24 1   
    44    24    25 2   
    45    24    44 1   
    46    25    26 1   
    47    25    45 1   
    48    26    46 1   
@<TRIPOS>SUBSTRUCTURE
     1 88D         1 TEMP              0 ****  ****    0 ROOT
