@<TRIPOS>MOLECULE
88D
   46    48     1     0     0
SMALL
abcg2


@<TRIPOS>ATOM
      1 CAA          4.9760     0.6490     2.1180 c3         1 88D      -0.048800
      2 CAW          5.2670    -0.2130     0.9240 ca         1 88D      -0.105300
      3 CAM          6.4940    -0.8560     0.7920 ca         1 88D      -0.093000
      4 CAG          6.7750    -1.6670    -0.2980 ca         1 88D      -0.119000
      5 CAH          5.8210    -1.8330    -1.2920 ca         1 88D      -0.096000
      6 CAN          4.5970    -1.1900    -1.1920 ca         1 88D      -0.107000
      7 CAX          4.3160    -0.3900    -0.0880 ca         1 88D      -0.036000
      8 NAQ          3.0840     0.2840     0.0240 ns         1 88D      -0.156000
      9 C            1.8650    -0.2340    -0.2510 c          1 88D       0.591100
     10 O            1.6720    -1.3730    -0.6310 o          1 88D      -0.578100
     11 CA           0.7240     0.7680    -0.0960 c3         1 88D       0.028700
     12 CB           0.6830     1.6990    -1.3280 c3         1 88D      -0.042100
     13 CG          -0.4760     2.6480    -1.2440 ca         1 88D      -0.087300
     14 CD1         -0.3910     3.8020    -0.4680 ca         1 88D      -0.099500
     15 CE1         -1.4800     4.6540    -0.3420 ca         1 88D      -0.105000
     16 CZ          -2.6740     4.3590    -0.9890 ca         1 88D      -0.105000
     17 CE2         -2.7690     3.2130    -1.7660 ca         1 88D      -0.105000
     18 CD2         -1.6760     2.3650    -1.8910 ca         1 88D      -0.099500
     19 N           -0.5210     0.0740     0.0670 ns         1 88D      -0.489900
     20 CAT         -1.3570     0.2860     1.1040 c          1 88D       0.649700
     21 OAB         -1.0760     0.9850     2.0650 o          1 88D      -0.596100
     22 CAY         -2.6710    -0.3910     1.0260 cc         1 88D      -0.180600
     23 SE          -3.5540    -0.8140    -0.5570 ss         1 88D      -0.007000
     24 CAJ         -4.9230    -1.4870     0.4820 cc         1 88D      -0.114000
     25 CAI         -4.6640    -1.3530     1.8100 cd         1 88D      -0.143000
     26 CAO         -3.4200    -0.7360     2.1110 cd         1 88D      -0.061000
     27 H1           4.8860     1.7040     1.8480 hc         1 88D       0.043367
     28 H2           4.0440     0.3610     2.6070 hc         1 88D       0.043367
     29 H3           5.7740     0.5740     2.8530 hc         1 88D       0.043367
     30 H4           7.2390    -0.7260     1.5670 ha         1 88D       0.112000
     31 H5           7.7340    -2.1630    -0.3710 ha         1 88D       0.115000
     32 H6           6.0300    -2.4540    -2.1530 ha         1 88D       0.116000
     33 H7           3.8690    -1.3020    -1.9830 ha         1 88D       0.130000
     34 H8           3.1100     1.2080     0.4280 hn         1 88D       0.155000
     35 H9           0.8840     1.3760     0.7960 h1         1 88D       0.095700
     36 H10          1.6240     2.2490    -1.3870 hc         1 88D       0.058200
     37 H11          0.6110     1.0900    -2.2330 hc         1 88D       0.058200
     38 H12          0.5360     4.0380     0.0410 ha         1 88D       0.108500
     39 H13         -1.3960     5.5490     0.2610 ha         1 88D       0.113500
     40 H14         -3.5240     5.0220    -0.8900 ha         1 88D       0.113000
     41 H15         -3.6940     2.9770    -2.2760 ha         1 88D       0.113500
     42 H16         -1.7530     1.4770    -2.5070 ha         1 88D       0.108500
     43 H17         -0.7360    -0.6340    -0.6180 hn         1 88D       0.336500
     44 H18         -5.8100    -1.9120     0.0340 h4         1 88D       0.150000
     45 H19         -5.3540    -1.6840     2.5740 ha         1 88D       0.139000
     46 H20         -3.0830    -0.5620     3.1240 ha         1 88D       0.151000
@<TRIPOS>BOND
     1     1     2 1   
     2     1    27 1   
     3     1    28 1   
     4     1    29 1   
     5     2     3 ar  
     6     2     7 ar  
     7     3     4 ar  
     8     3    30 1   
     9     4     5 ar  
    10     4    31 1   
    11     5     6 ar  
    12     5    32 1   
    13     6     7 ar  
    14     6    33 1   
    15     7     8 1   
    16     8     9 1   
    17     8    34 1   
    18     9    10 2   
    19     9    11 1   
    20    11    12 1   
    21    11    19 1   
    22    11    35 1   
    23    12    13 1   
    24    12    36 1   
    25    12    37 1   
    26    13    14 ar  
    27    13    18 ar  
    28    14    15 ar  
    29    14    38 1   
    30    15    16 ar  
    31    15    39 1   
    32    16    17 ar  
    33    16    40 1   
    34    17    18 ar  
    35    17    41 1   
    36    18    42 1   
    37    19    20 1   
    38    19    43 1   
    39    20    21 2   
    40    20    22 1   
    41    22    23 1   
    42    22    26 2   
    43    23    24 1   
    44    24    25 2   
    45    24    44 1   
    46    25    26 1   
    47    25    45 1   
    48    26    46 1   
@<TRIPOS>SUBSTRUCTURE
     1 88D         1 TEMP              0 ****  ****    0 ROOT
