@<TRIPOS>MOLECULE
88E
   48    51     1     0     0
SMALL
abcg2


@<TRIPOS>ATOM
      1 C10         -9.0110   -48.7030    29.6740 ca         1 88E      -0.100000
      2 C11         -8.5820   -50.0050    29.6090 ca         1 88E      -0.102000
      3 C12         -7.2160   -50.2990    29.3990 ca         1 88E      -0.106000
      4 C13         -6.3040   -49.2830    29.2610 ca         1 88E      -0.095000
      5 C14         -6.7140   -47.9300    29.3250 ca         1 88E      -0.042000
      6 C15         -5.8010   -46.8540    29.1940 ca         1 88E      -0.088000
      7 C16         -6.2260   -45.5550    29.2520 ca         1 88E      -0.096000
      8 C19         -6.4050   -41.1670    32.7130 c3         1 88E       0.163800
      9 C21         -8.6170   -40.1600    33.1960 c6         1 88E       0.152300
     10 C22         -9.3840   -39.6900    34.4380 c6         1 88E       0.152100
     11 C24         -7.6530   -38.0840    34.4950 c6         1 88E       0.152100
     12 C25         -6.6000   -39.0140    33.8820 c6         1 88E       0.152300
     13 C2          -9.0890   -43.3070    28.9450 cc         1 88E      -0.084300
     14 C3          -8.9900   -41.9650    29.2450 cd         1 88E      -0.247000
     15 C4          -7.7950   -41.8440    29.9870 cd         1 88E       0.496300
     16 C7          -7.5970   -45.2650    29.4570 ca         1 88E       0.033800
     17 C8          -8.5080   -46.2820    29.6090 ca         1 88E      -0.118000
     18 C9          -8.0940   -47.6330    29.5320 ca         1 88E      -0.026000
     19 C18         -6.1330   -40.7160    31.2780 c3         1 88E       0.125600
     20 N5          -7.1850   -43.0050    30.1460 nc         1 88E      -0.590800
     21 N6          -7.9970   -43.9110    29.5060 na         1 88E       0.197000
     22 N20         -7.2130   -40.2980    33.5490 n3         1 88E      -0.749600
     23 O23         -8.5950   -38.8210    35.2630 os         1 88E      -0.448000
     24 H1         -10.0580   -48.4750    29.8340 ha         1 88E       0.114000
     25 H2          -9.2920   -50.8150    29.7170 ha         1 88E       0.115000
     26 H3          -6.8930   -51.3310    29.3480 ha         1 88E       0.115000
     27 H4          -5.2550   -49.5020    29.1020 ha         1 88E       0.115000
     28 H5          -4.7530   -47.0750    29.0350 ha         1 88E       0.119000
     29 H6          -5.5290   -44.7370    29.1410 ha         1 88E       0.137000
     30 H7          -6.8740   -42.1520    32.6890 h1         1 88E       0.066700
     31 H8          -5.4280   -41.2850    33.1940 h1         1 88E       0.066700
     32 H10         -8.7780   -39.4650    32.3600 h1         1 88E       0.039700
     33 H11        -10.3060   -39.1770    34.1370 h1         1 88E       0.044950
     34 H12         -9.6470   -40.5410    35.0690 h1         1 88E       0.044950
     35 H13         -7.1830   -37.3660    35.1660 h1         1 88E       0.044950
     36 H14         -8.1720   -37.5210    33.7100 h1         1 88E       0.044950
     37 H15         -5.7840   -39.1930    34.5890 h1         1 88E       0.039700
     38 H16         -6.1680   -38.5020    33.0080 h1         1 88E       0.039700
     39 H20         -9.6680   -41.1820    28.9520 ha         1 88E       0.154000
     40 H21         -9.5480   -46.0660    29.8050 ha         1 88E       0.122000
     41 H22         -5.3960   -41.3770    30.8170 h1         1 88E       0.063200
     42 H23         -5.7540   -39.6960    31.2470 h1         1 88E       0.063200
     43 O17         -7.3230   -40.6790    30.4640 os         1 88E      -0.455300
     44 C1         -10.1210   -44.0100    28.1330 c3         1 88E      -0.034800
     45 H9          -9.0060   -41.1290    32.8800 h1         1 88E       0.039700
     46 H17        -10.8590   -44.5110    28.7620 hc         1 88E       0.056033
     47 H18        -10.6450   -43.2820    27.5150 hc         1 88E       0.056033
     48 H19         -9.6720   -44.7630    27.4840 hc         1 88E       0.056033
@<TRIPOS>BOND
     1     1     2 ar  
     2     1    18 ar  
     3     1    24 1   
     4     2     3 ar  
     5     2    25 1   
     6     3     4 ar  
     7     3    26 1   
     8     4     5 ar  
     9     4    27 1   
    10     5     6 ar  
    11     5    18 ar  
    12     6     7 ar  
    13     6    28 1   
    14     7    16 ar  
    15     7    29 1   
    16     8    19 1   
    17     8    22 1   
    18     8    30 1   
    19     8    31 1   
    20     9    10 1   
    21     9    22 1   
    22     9    32 1   
    23     9    45 1   
    24    10    23 1   
    25    10    33 1   
    26    10    34 1   
    27    11    12 1   
    28    11    23 1   
    29    11    35 1   
    30    11    36 1   
    31    12    22 1   
    32    12    37 1   
    33    12    38 1   
    34    13    14 2   
    35    13    21 1   
    36    13    44 1   
    37    14    15 1   
    38    14    39 1   
    39    15    20 2   
    40    15    43 1   
    41    16    17 ar  
    42    16    21 1   
    43    17    18 ar  
    44    17    40 1   
    45    19    41 1   
    46    19    42 1   
    47    19    43 1   
    48    20    21 1   
    49    44    46 1   
    50    44    47 1   
    51    44    48 1   
@<TRIPOS>SUBSTRUCTURE
     1 88E         1 TEMP              0 ****  ****    0 ROOT
