@<TRIPOS>MOLECULE
88E
   48    51     1     0     0
SMALL
No Charge or Current Charge


@<TRIPOS>ATOM
      1 C10         -8.7270   -48.4790    30.4420 ca         1 88E      -0.100000
      2 C11         -8.4510   -49.8500    30.2930 ca         1 88E      -0.102000
      3 C12         -7.3730   -50.2690    29.4950 ca         1 88E      -0.106000
      4 C13         -6.5670   -49.3180    28.8450 ca         1 88E      -0.095000
      5 C14         -6.8390   -47.9440    28.9910 ca         1 88E      -0.042000
      6 C15         -6.0350   -46.9880    28.3430 ca         1 88E      -0.088000
      7 C16         -6.3110   -45.6180    28.4920 ca         1 88E      -0.096000
      8 C19         -6.3560   -41.2510    32.8040 c3         1 88E       0.163800
      9 C21         -8.7290   -40.3730    32.9180 c6         1 88E       0.152300
     10 C22         -9.7690   -39.5940    33.7940 c6         1 88E       0.152100
     11 C24         -7.9930   -38.3000    34.7960 c6         1 88E       0.152100
     12 C25         -6.9010   -39.0950    34.0010 c6         1 88E       0.152300
     13 C2          -8.8760   -43.2350    29.0470 cc         1 88E      -0.084300
     14 C3          -8.6790   -41.9320    29.4080 cd         1 88E      -0.247000
     15 C4          -7.3920   -41.8600    29.9720 cd         1 88E       0.496300
     16 C7          -7.3940   -45.1920    29.2860 ca         1 88E       0.033800
     17 C8          -8.1950   -46.1500    29.9380 ca         1 88E      -0.118000
     18 C9          -7.9230   -47.5230    29.7920 ca         1 88E      -0.026000
     19 C18         -5.8310   -40.6900    31.4420 c3         1 88E       0.125600
     20 N5          -6.7300   -42.9980    30.0000 nc         1 88E      -0.590800
     21 N6          -7.6680   -43.8290    29.4250 na         1 88E       0.197000
     22 N20         -7.3720   -40.4440    33.5500 n3         1 88E      -0.749600
     23 O23         -9.1770   -39.1040    35.0240 os         1 88E      -0.448000
     24 H1          -9.5630   -48.1630    31.0610 ha         1 88E       0.114000
     25 H2          -9.0740   -50.5870    30.7960 ha         1 88E       0.115000
     26 H3          -7.1610   -51.3300    29.3810 ha         1 88E       0.115000
     27 H4          -5.7340   -49.6500    28.2300 ha         1 88E       0.115000
     28 H5          -5.1970   -47.3040    27.7260 ha         1 88E       0.119000
     29 H6          -5.6860   -44.8840    27.9880 ha         1 88E       0.137000
     30 H7          -6.7460   -42.2640    32.6350 h1         1 88E       0.066700
     31 H8          -5.4760   -41.3820    33.4490 h1         1 88E       0.066700
     32 H10         -8.6750   -39.8640    31.9460 h1         1 88E       0.039700
     33 H11        -10.1700   -38.7440    33.2240 h1         1 88E       0.044950
     34 H12        -10.6100   -40.2560    34.0460 h1         1 88E       0.044950
     35 H13         -7.5880   -37.9780    35.7660 h1         1 88E       0.044950
     36 H14         -8.2770   -37.3980    34.2340 h1         1 88E       0.044950
     37 H15         -6.0110   -39.2010    34.6380 h1         1 88E       0.039700
     38 H16         -6.6010   -38.4830    33.1380 h1         1 88E       0.039700
     39 H20         -9.3710   -41.1080    29.2890 ha         1 88E       0.154000
     40 H21         -9.0260   -45.8260    30.5600 ha         1 88E       0.122000
     41 H22         -4.9820   -41.3010    31.1090 h1         1 88E       0.063200
     42 H23         -5.4500   -39.6730    31.5970 h1         1 88E       0.063200
     43 O17         -6.8750   -40.6850    30.4390 os         1 88E      -0.455300
     44 C1         -10.0550   -43.9020    28.3880 c3         1 88E      -0.034800
     45 H9          -9.1140   -41.3850    32.7250 h1         1 88E       0.039700
     46 H17        -10.6660   -44.4350    29.1260 hc         1 88E       0.056033
     47 H18        -10.6960   -43.1620    27.8930 hc         1 88E       0.056033
     48 H19         -9.7290   -44.6230    27.6300 hc         1 88E       0.056033
@<TRIPOS>BOND
     1     1     2 ar  
     2     1    18 ar  
     3     1    24 1   
     4     2     3 ar  
     5     2    25 1   
     6     3     4 ar  
     7     3    26 1   
     8     4     5 ar  
     9     4    27 1   
    10     5     6 ar  
    11     5    18 ar  
    12     6     7 ar  
    13     6    28 1   
    14     7    16 ar  
    15     7    29 1   
    16     8    19 1   
    17     8    22 1   
    18     8    30 1   
    19     8    31 1   
    20     9    10 1   
    21     9    22 1   
    22     9    32 1   
    23     9    45 1   
    24    10    23 1   
    25    10    33 1   
    26    10    34 1   
    27    11    12 1   
    28    11    23 1   
    29    11    35 1   
    30    11    36 1   
    31    12    22 1   
    32    12    37 1   
    33    12    38 1   
    34    13    14 2   
    35    13    21 1   
    36    13    44 1   
    37    14    15 1   
    38    14    39 1   
    39    15    20 2   
    40    15    43 1   
    41    16    17 ar  
    42    16    21 1   
    43    17    18 ar  
    44    17    40 1   
    45    19    41 1   
    46    19    42 1   
    47    19    43 1   
    48    20    21 1   
    49    44    46 1   
    50    44    47 1   
    51    44    48 1   
@<TRIPOS>SUBSTRUCTURE
     1 88E         1 TEMP              0 ****  ****    0 ROOT
