@<TRIPOS>MOLECULE
88G
   49    51     1     0     0
SMALL
abcg2


@<TRIPOS>ATOM
      1 CAA          4.4040     0.6570     2.3020 c3         1 88G      -0.047800
      2 CAW          4.8860     0.0190     1.0330 ca         1 88G      -0.102300
      3 CAL          6.2040    -0.4080     0.9050 ca         1 88G      -0.094000
      4 CAJ          6.6570    -1.0300    -0.2490 ca         1 88G      -0.118000
      5 CAK          5.7860    -1.2210    -1.3120 ca         1 88G      -0.097000
      6 CAQ          4.4720    -0.7880    -1.2180 ca         1 88G      -0.106000
      7 CAZ          4.0220    -0.1760    -0.0520 ca         1 88G      -0.038000
      8 NAS          2.6950     0.2870     0.0550 ns         1 88G      -0.156000
      9 C            1.5850    -0.3880    -0.3160 c          1 88G       0.592100
     10 O            1.5890    -1.5090    -0.7890 o          1 88G      -0.582100
     11 CA           0.2960     0.4110    -0.1470 c3         1 88G       0.030700
     12 CB           0.1360     1.3690    -1.3500 c3         1 88G      -0.043100
     13 CG          -1.1470     2.1410    -1.2620 ca         1 88G      -0.084300
     14 CD1         -1.2290     3.2930    -0.4830 ca         1 88G      -0.098500
     15 CE1         -2.4250     3.9840    -0.3610 ca         1 88G      -0.105000
     16 CZ          -3.5640     3.5290    -1.0140 ca         1 88G      -0.103000
     17 CE2         -3.4940     2.3820    -1.7940 ca         1 88G      -0.105000
     18 CD2         -2.2920     1.6970    -1.9170 ca         1 88G      -0.098500
     19 N           -0.8160    -0.4890    -0.0370 ns         1 88G      -0.492900
     20 CAU         -1.7930    -0.3500     0.8790 c          1 88G       0.623700
     21 OAB         -1.7640     0.4890     1.7670 o          1 88G      -0.602100
     22 CAY         -2.9340    -1.3110     0.7640 ca         1 88G      -0.146600
     23 CAO         -3.6700    -1.5920     1.9140 ca         1 88G      -0.070000
     24 CAH         -4.7480    -2.4610     1.8610 ca         1 88G      -0.120500
     25 CAE         -5.1150    -3.0450     0.6550 ca         1 88G      -0.089000
     26 CAI         -4.3970    -2.7560    -0.4970 ca         1 88G      -0.120500
     27 CAP         -3.3100    -1.8950    -0.4440 ca         1 88G      -0.070000
     28 H1           4.1040     1.6980     2.1560 hc         1 88G       0.043033
     29 H2           3.5410     0.1300     2.7120 hc         1 88G       0.043033
     30 H3           5.1860     0.6530     3.0590 hc         1 88G       0.043033
     31 H4           6.8850    -0.2610     1.7350 ha         1 88G       0.112000
     32 H5           7.6850    -1.3610    -0.3180 ha         1 88G       0.115000
     33 H6           6.1280    -1.6970    -2.2210 ha         1 88G       0.116000
     34 H7           3.8050    -0.9130    -2.0590 ha         1 88G       0.129000
     35 H8           2.5600     1.1690     0.5270 hn         1 88G       0.156000
     36 H9           0.3400     1.0010     0.7690 h1         1 88G       0.093700
     37 H10          0.9900     2.0490    -1.3740 hc         1 88G       0.056700
     38 H11          0.1650     0.7860    -2.2740 hc         1 88G       0.056700
     39 H12         -0.3470     3.6540     0.0340 ha         1 88G       0.106500
     40 H13         -2.4700     4.8810     0.2440 ha         1 88G       0.112500
     41 H14         -4.4980     4.0670    -0.9200 ha         1 88G       0.113000
     42 H15         -4.3740     2.0220    -2.3110 ha         1 88G       0.112500
     43 H16         -2.2430     0.8100    -2.5380 ha         1 88G       0.106500
     44 H17         -0.8480    -1.2590    -0.6860 hn         1 88G       0.334500
     45 H18         -3.3940    -1.1340     2.8540 ha         1 88G       0.122500
     46 H19         -5.3060    -2.6800     2.7620 ha         1 88G       0.116000
     47 H20         -5.9610    -3.7180     0.6130 ha         1 88G       0.115000
     48 H21         -4.6850    -3.1960    -1.4430 ha         1 88G       0.116000
     49 H22         -2.7820    -1.6710    -1.3620 ha         1 88G       0.122500
@<TRIPOS>BOND
     1     1     2 1   
     2     1    28 1   
     3     1    29 1   
     4     1    30 1   
     5     2     3 ar  
     6     2     7 ar  
     7     3     4 ar  
     8     3    31 1   
     9     4     5 ar  
    10     4    32 1   
    11     5     6 ar  
    12     5    33 1   
    13     6     7 ar  
    14     6    34 1   
    15     7     8 1   
    16     8     9 1   
    17     8    35 1   
    18     9    10 2   
    19     9    11 1   
    20    11    12 1   
    21    11    19 1   
    22    11    36 1   
    23    12    13 1   
    24    12    37 1   
    25    12    38 1   
    26    13    14 ar  
    27    13    18 ar  
    28    14    15 ar  
    29    14    39 1   
    30    15    16 ar  
    31    15    40 1   
    32    16    17 ar  
    33    16    41 1   
    34    17    18 ar  
    35    17    42 1   
    36    18    43 1   
    37    19    20 1   
    38    19    44 1   
    39    20    21 2   
    40    20    22 1   
    41    22    23 ar  
    42    22    27 ar  
    43    23    24 ar  
    44    23    45 1   
    45    24    25 ar  
    46    24    46 1   
    47    25    26 ar  
    48    25    47 1   
    49    26    27 ar  
    50    26    48 1   
    51    27    49 1   
@<TRIPOS>SUBSTRUCTURE
     1 88G         1 TEMP              0 ****  ****    0 ROOT
