@<TRIPOS>MOLECULE
88G
   49    51     1     0     0
SMALL
No Charge or Current Charge


@<TRIPOS>ATOM
      1 CAA          4.7240     1.9890     0.5890 c3         1 88G      -0.047800
      2 CAW          5.1030     0.5410     0.2850 ca         1 88G      -0.102300
      3 CAL          6.4660     0.1870     0.2200 ca         1 88G      -0.094000
      4 CAJ          6.8470    -1.1340    -0.0590 ca         1 88G      -0.118000
      5 CAK          5.8670    -2.1140    -0.2710 ca         1 88G      -0.097000
      6 CAQ          4.5050    -1.7730    -0.2090 ca         1 88G      -0.106000
      7 CAZ          4.1080    -0.4430     0.0630 ca         1 88G      -0.038000
      8 NAS          2.7400    -0.0540     0.1420 ns         1 88G      -0.156000
      9 C            1.5580    -0.6940    -0.2140 c          1 88G       0.592100
     10 O            1.5090    -1.8050    -0.7360 o          1 88G      -0.582100
     11 CA           0.2780     0.1340     0.0960 c3         1 88G       0.030700
     12 CB           0.1770     1.3840    -0.8200 c3         1 88G      -0.043100
     13 CG          -1.0790     2.2150    -0.5750 ca         1 88G      -0.084300
     14 CD1         -1.1180     3.1440     0.4830 ca         1 88G      -0.098500
     15 CE1         -2.2770     3.9040     0.7170 ca         1 88G      -0.105000
     16 CZ          -3.4040     3.7400    -0.1060 ca         1 88G      -0.103000
     17 CE2         -3.3710     2.8160    -1.1630 ca         1 88G      -0.105000
     18 CD2         -2.2110     2.0560    -1.3980 ca         1 88G      -0.098500
     19 N           -0.9360    -0.7120    -0.0260 ns         1 88G      -0.492900
     20 CAU         -2.0270    -0.6650     0.8170 c          1 88G       0.623700
     21 OAB         -2.0260     0.0370     1.8190 o          1 88G      -0.602100
     22 CAY         -3.2110    -1.5340     0.4420 ca         1 88G      -0.146600
     23 CAO         -4.3530    -1.5480     1.2780 ca         1 88G      -0.070000
     24 CAH         -5.4700    -2.3380     0.9590 ca         1 88G      -0.120500
     25 CAE         -5.4670    -3.1280    -0.2000 ca         1 88G      -0.089000
     26 CAI         -4.3440    -3.1250    -1.0420 ca         1 88G      -0.120500
     27 CAP         -3.2230    -2.3360    -0.7270 ca         1 88G      -0.070000
     28 H1           4.1170     2.4170    -0.2180 hc         1 88G       0.043033
     29 H2           4.1490     2.0600     1.5200 hc         1 88G       0.043033
     30 H3           5.6090     2.6270     0.7030 hc         1 88G       0.043033
     31 H4           7.2350     0.9380     0.3860 ha         1 88G       0.112000
     32 H5           7.9010    -1.3990    -0.1060 ha         1 88G       0.115000
     33 H6           6.1610    -3.1400    -0.4800 ha         1 88G       0.116000
     34 H7           3.7760    -2.5610    -0.3630 ha         1 88G       0.129000
     35 H8           2.6050     0.8680     0.5350 hn         1 88G       0.156000
     36 H9           0.3720     0.4720     1.1360 h1         1 88G       0.093700
     37 H10          1.0630     2.0140    -0.6760 hc         1 88G       0.056700
     38 H11          0.2090     1.0590    -1.8680 hc         1 88G       0.056700
     39 H12         -0.2510     3.2740     1.1280 ha         1 88G       0.106500
     40 H13         -2.3020     4.6180     1.5370 ha         1 88G       0.112500
     41 H14         -4.3010     4.3270     0.0760 ha         1 88G       0.113000
     42 H15         -4.2430     2.6860    -1.8000 ha         1 88G       0.112500
     43 H16         -2.1970     1.3400    -2.2170 ha         1 88G       0.106500
     44 H17         -0.9870    -1.3600    -0.8020 hn         1 88G       0.334500
     45 H18         -4.3780    -0.9420     2.1820 ha         1 88G       0.122500
     46 H19         -6.3400    -2.3380     1.6130 ha         1 88G       0.116000
     47 H20         -6.3320    -3.7400    -0.4470 ha         1 88G       0.115000
     48 H21         -4.3410    -3.7360    -1.9420 ha         1 88G       0.116000
     49 H22         -2.3750    -2.3600    -1.4070 ha         1 88G       0.122500
@<TRIPOS>BOND
     1     1     2 1   
     2     1    28 1   
     3     1    29 1   
     4     1    30 1   
     5     2     3 ar  
     6     2     7 ar  
     7     3     4 ar  
     8     3    31 1   
     9     4     5 ar  
    10     4    32 1   
    11     5     6 ar  
    12     5    33 1   
    13     6     7 ar  
    14     6    34 1   
    15     7     8 1   
    16     8     9 1   
    17     8    35 1   
    18     9    10 2   
    19     9    11 1   
    20    11    12 1   
    21    11    19 1   
    22    11    36 1   
    23    12    13 1   
    24    12    37 1   
    25    12    38 1   
    26    13    14 ar  
    27    13    18 ar  
    28    14    15 ar  
    29    14    39 1   
    30    15    16 ar  
    31    15    40 1   
    32    16    17 ar  
    33    16    41 1   
    34    17    18 ar  
    35    17    42 1   
    36    18    43 1   
    37    19    20 1   
    38    19    44 1   
    39    20    21 2   
    40    20    22 1   
    41    22    23 ar  
    42    22    27 ar  
    43    23    24 ar  
    44    23    45 1   
    45    24    25 ar  
    46    24    46 1   
    47    25    26 ar  
    48    25    47 1   
    49    26    27 ar  
    50    26    48 1   
    51    27    49 1   
@<TRIPOS>SUBSTRUCTURE
     1 88G         1 TEMP              0 ****  ****    0 ROOT
