@<TRIPOS>MOLECULE
88H
   52    55     1     0     0
SMALL
abcg2


@<TRIPOS>ATOM
      1 C13          6.1660     1.5720    29.2650 ca         1 88H      -0.113000
      2 C12          7.3420     1.3830    28.5530 ca         1 88H      -0.107000
      3 C11          7.5910     2.1230    27.3930 ca         1 88H      -0.092300
      4 C10         12.1470     1.7450    23.7710 ca         1 88H       0.406300
      5 C14          5.2220     2.4980    28.8240 ca         1 88H      -0.106000
      6 C02         13.9440     0.6690    22.7950 ca         1 88H       0.589900
      7 C03         14.4550     1.8900    22.3160 ca         1 88H      -0.221000
      8 C04         13.7560     3.0410    22.5980 ca         1 88H      -0.037000
      9 C05         12.5700     2.9950    23.3430 ca         1 88H      -0.170300
     10 C06         11.8080     4.2580    23.6470 c6         1 88H       0.032100
     11 C07         10.5730     4.0380    24.4620 c2         1 88H      -0.247200
     12 C08         10.1630     2.8400    24.8660 c2         1 88H       0.065900
     13 C09         10.8900     1.5620    24.5820 c6         1 88H      -0.115500
     14 C15          5.4520     3.2370    27.6680 ca         1 88H      -0.090300
     15 C16          6.6410     3.0400    26.9610 ca         1 88H      -0.058000
     16 C22          1.6600     5.0740    26.3990 ca         1 88H       0.304300
     17 C23          0.7570     4.2010    27.0110 ca         1 88H      -0.162000
     18 C24         -0.1680     4.7030    27.9120 ca         1 88H      -0.071000
     19 C25         -0.1710     6.0690    28.1770 ca         1 88H      -0.164000
     20 C26          0.7570     6.8650    27.5210 ca         1 88H       0.337900
     21 C32          8.8870     1.8980    26.6600 c3         1 88H       0.211900
     22 C33          4.4230     4.2100    27.1590 c3         1 88H       0.202100
     23 C35          2.7080     4.5500    25.4360 c3         1 88H       0.104500
     24 N01         12.8160     0.6100    23.5020 nb         1 88H      -0.750000
     25 N21          1.6560     6.3880    26.6530 nb         1 88H      -0.665000
     26 N34          3.6930     3.6380    26.0200 n7         1 88H      -0.853400
     27 O31          8.9490     2.7410    25.5110 os         1 88H      -0.368100
     28 H1           5.9820     0.9980    30.1650 ha         1 88H       0.112000
     29 H2           8.0750     0.6640    28.8990 ha         1 88H       0.109000
     30 H3           4.3040     2.6460    29.3810 ha         1 88H       0.109000
     31 H4          15.3730     1.9110    21.7420 ha         1 88H       0.122000
     32 H5          14.1240     3.9960    22.2390 ha         1 88H       0.115000
     33 H6          12.4660     4.9670    24.1650 hc         1 88H       0.054200
     34 H7          11.5430     4.7580    22.7070 hc         1 88H       0.054200
     35 H8           9.9730     4.9050    24.7130 ha         1 88H       0.191000
     36 H9          10.2200     0.8700    24.0580 hc         1 88H       0.074700
     37 H10         11.1550     1.0550    25.5160 hc         1 88H       0.074700
     38 H11          6.8250     3.6160    26.0650 ha         1 88H       0.137000
     39 H12          0.7880     3.1440    26.7790 ha         1 88H       0.121000
     40 H13         -0.8770     4.0450    28.3970 ha         1 88H       0.119000
     41 H14         -0.8740     6.5070    28.8720 ha         1 88H       0.124000
     42 H15          0.7840     7.9350    27.7000 h4         1 88H       0.020100
     43 H16          8.9640     0.8460    26.3670 h1         1 88H       0.039700
     44 H17          9.7300     2.1190    27.3240 h1         1 88H       0.039700
     45 H18          4.9100     5.1230    26.8060 h1         1 88H       0.044700
     46 H19          3.7570     4.4960    27.9840 h1         1 88H       0.044700
     47 H20          3.2350     5.4080    25.0150 h1         1 88H       0.072200
     48 H21          2.2150     4.0220    24.6160 h1         1 88H       0.072200
     49 H22         14.0770    -1.3510    22.7050 hn         1 88H       0.466000
     50 H23         15.2660    -0.5380    21.8140 hn         1 88H       0.466000
     51 H24          3.2390     2.7790    26.3130 hn         1 88H       0.408000
     52 N02         14.6250    -0.5110    22.5920 nv         1 88H      -1.051900
@<TRIPOS>BOND
     1     1     2 ar  
     2     1     5 ar  
     3     1    28 1   
     4     2     3 ar  
     5     2    29 1   
     6     3    15 ar  
     7     3    21 1   
     8     4     9 ar  
     9     4    13 1   
    10     4    24 ar  
    11     5    14 ar  
    12     5    30 1   
    13     6     7 ar  
    14     6    24 ar  
    15     6    52 1   
    16     7     8 ar  
    17     7    31 1   
    18     8     9 ar  
    19     8    32 1   
    20     9    10 1   
    21    10    11 1   
    22    10    33 1   
    23    10    34 1   
    24    11    12 2   
    25    11    35 1   
    26    12    13 1   
    27    12    27 1   
    28    13    36 1   
    29    13    37 1   
    30    14    15 ar  
    31    14    22 1   
    32    15    38 1   
    33    16    17 ar  
    34    16    23 1   
    35    16    25 ar  
    36    17    18 ar  
    37    17    39 1   
    38    18    19 ar  
    39    18    40 1   
    40    19    20 ar  
    41    19    41 1   
    42    20    25 ar  
    43    20    42 1   
    44    21    27 1   
    45    21    43 1   
    46    21    44 1   
    47    22    26 1   
    48    22    45 1   
    49    22    46 1   
    50    23    26 1   
    51    23    47 1   
    52    23    48 1   
    53    26    51 1   
    54    49    52 1   
    55    50    52 1   
@<TRIPOS>SUBSTRUCTURE
     1 88H         1 TEMP              0 ****  ****    0 ROOT
