@<TRIPOS>MOLECULE
88H
   52    55     1     0     0
SMALL
No Charge or Current Charge


@<TRIPOS>ATOM
      1 C13          6.4690     2.3430    29.2400 ca         1 88H      -0.113000
      2 C12          7.5390     1.9750    28.4070 ca         1 88H      -0.107000
      3 C11          7.5410     2.3500    27.0500 ca         1 88H      -0.092300
      4 C10         12.4080     1.7070    23.7990 ca         1 88H       0.406300
      5 C14          5.3970     3.0900    28.7230 ca         1 88H      -0.106000
      6 C02         13.9040     0.4930    22.5740 ca         1 88H       0.589900
      7 C03         14.7040     1.6040    22.3020 ca         1 88H      -0.221000
      8 C04         14.3160     2.8460    22.8250 ca         1 88H      -0.037000
      9 C05         13.1390     2.9000    23.5930 ca         1 88H      -0.170300
     10 C06         12.6760     4.2300    24.1820 c6         1 88H       0.032100
     11 C07         11.4160     4.1350    25.0230 c2         1 88H      -0.247200
     12 C08         10.7130     3.0150    25.2260 c2         1 88H       0.065900
     13 C09         11.1200     1.6750    24.6150 c6         1 88H      -0.115500
     14 C15          5.3900     3.4730    27.3670 ca         1 88H      -0.090300
     15 C16          6.4640     3.1000    26.5360 ca         1 88H      -0.058000
     16 C22          1.1610     4.7390    26.5430 ca         1 88H       0.304300
     17 C23          0.3360     3.9410    27.3610 ca         1 88H      -0.162000
     18 C24         -0.5000     4.5560    28.3070 ca         1 88H      -0.071000
     19 C25         -0.4760     5.9570    28.3970 ca         1 88H      -0.164000
     20 C26          0.3740     6.6830    27.5450 ca         1 88H       0.337900
     21 C32          8.6960     1.9500    26.1400 c3         1 88H       0.211900
     22 C33          4.2340     4.2870    26.8030 c3         1 88H       0.202100
     23 C35          2.0920     4.0880    25.5040 c3         1 88H       0.104500
     24 N01         12.7900     0.5120    23.2890 nb         1 88H      -0.750000
     25 N21          1.1800     6.0930    26.6320 nb         1 88H      -0.665000
     26 N34          3.2860     3.4080    26.0920 n7         1 88H      -0.853400
     27 O31          9.5910     3.0730    26.0180 os         1 88H      -0.368100
     28 H1           6.4710     2.0510    30.2880 ha         1 88H       0.112000
     29 H2           8.3650     1.3990    28.8170 ha         1 88H       0.109000
     30 H3           4.5730     3.3700    29.3750 ha         1 88H       0.109000
     31 H4          15.6050     1.5080    21.7040 ha         1 88H       0.122000
     32 H5          14.9100     3.7400    22.6400 ha         1 88H       0.115000
     33 H6          13.4840     4.6510    24.7970 hc         1 88H       0.054200
     34 H7          12.5080     4.9480    23.3670 hc         1 88H       0.054200
     35 H8          11.0870     5.0680    25.4840 ha         1 88H       0.191000
     36 H9          10.3140     1.3100    23.9660 hc         1 88H       0.074700
     37 H10         11.2410     0.9350    25.4160 hc         1 88H       0.074700
     38 H11          6.4610     3.3930    25.4890 ha         1 88H       0.137000
     39 H12          0.3480     2.8590    27.2610 ha         1 88H       0.121000
     40 H13         -1.1470     3.9650    28.9520 ha         1 88H       0.119000
     41 H14         -1.1040     6.4790    29.1130 ha         1 88H       0.124000
     42 H15          0.4110     7.7710    27.5940 h4         1 88H       0.020100
     43 H16          8.2970     1.6620    25.1590 h1         1 88H       0.039700
     44 H17          9.2130     1.0820    26.5690 h1         1 88H       0.039700
     45 H18          4.6330     5.0530    26.1230 h1         1 88H       0.044700
     46 H19          3.7330     4.8140    27.6270 h1         1 88H       0.044700
     47 H20          2.4100     4.8570    24.7860 h1         1 88H       0.072200
     48 H21          1.4950     3.3640    24.9320 h1         1 88H       0.072200
     49 H22         13.3970    -1.3890    22.1940 hn         1 88H       0.466000
     50 H23         14.7680    -0.8230    21.3110 hn         1 88H       0.466000
     51 H24          2.9640     2.6940    26.7570 hn         1 88H       0.408000
     52 N02         14.1690    -0.7360    22.1250 nv         1 88H      -1.051900
@<TRIPOS>BOND
     1     1     2 ar  
     2     1     5 ar  
     3     1    28 1   
     4     2     3 ar  
     5     2    29 1   
     6     3    15 ar  
     7     3    21 1   
     8     4     9 ar  
     9     4    13 1   
    10     4    24 ar  
    11     5    14 ar  
    12     5    30 1   
    13     6     7 ar  
    14     6    24 ar  
    15     6    52 1   
    16     7     8 ar  
    17     7    31 1   
    18     8     9 ar  
    19     8    32 1   
    20     9    10 1   
    21    10    11 1   
    22    10    33 1   
    23    10    34 1   
    24    11    12 2   
    25    11    35 1   
    26    12    13 1   
    27    12    27 1   
    28    13    36 1   
    29    13    37 1   
    30    14    15 ar  
    31    14    22 1   
    32    15    38 1   
    33    16    17 ar  
    34    16    23 1   
    35    16    25 ar  
    36    17    18 ar  
    37    17    39 1   
    38    18    19 ar  
    39    18    40 1   
    40    19    20 ar  
    41    19    41 1   
    42    20    25 ar  
    43    20    42 1   
    44    21    27 1   
    45    21    43 1   
    46    21    44 1   
    47    22    26 1   
    48    22    45 1   
    49    22    46 1   
    50    23    26 1   
    51    23    47 1   
    52    23    48 1   
    53    26    51 1   
    54    49    52 1   
    55    50    52 1   
@<TRIPOS>SUBSTRUCTURE
     1 88H         1 TEMP              0 ****  ****    0 ROOT
