@<TRIPOS>MOLECULE
88I
  111   113     1     0     0
SMALL
No Charge or Current Charge


@<TRIPOS>ATOM
      1 C1         220.6130   241.4350   292.2120 c5         1 88I       0.126300
      2 C14        218.0840   243.9060   292.5380 c5         1 88I       0.163300
      3 C10        225.8910   233.9920   295.4220 c3         1 88I      -0.077400
      4 C11        226.9140   233.0100   296.0440 c3         1 88I      -0.076400
      5 C12        226.2820   231.8540   296.8630 c3         1 88I      -0.072400
      6 C13        226.1110   232.1130   298.3830 c3         1 88I      -0.077400
      7 C16        224.0610   232.2660   300.8120 c          1 88I       0.657100
      8 C17        222.6380   234.0470   300.4390 c5         1 88I       0.169300
      9 C18        221.4880   234.7790   301.1560 c3         1 88I      -0.095100
     10 C2         222.7340   237.4490   293.3020 c3         1 88I      -0.077400
     11 C15        219.6220   243.5810   292.3310 c5         1 88I       0.166300
     12 C20        221.4420   242.3100   293.1860 c5         1 88I      -0.108400
     13 C21        220.3170   243.2420   293.6910 c5         1 88I      -0.101400
     14 C24        217.2660   242.6050   292.8390 c5         1 88I      -0.100400
     15 C25        216.1450   243.1860   293.7330 c5         1 88I      -0.113400
     16 C28        217.1990   245.9610   296.4340 c3         1 88I      -0.071400
     17 C29        216.4630   246.8920   297.4290 c3         1 88I      -0.074400
     18 C30        217.4290   247.6530   298.3670 c3         1 88I      -0.072400
     19 C31        216.7310   248.5270   299.4360 c3         1 88I      -0.072400
     20 C32        215.9280   249.7200   298.8660 c3         1 88I      -0.075400
     21 C33        215.3210   250.6180   299.9660 c3         1 88I      -0.077400
     22 C34        214.5160   251.8080   299.3990 c3         1 88I      -0.074400
     23 C35        213.9110   252.7070   300.5030 c3         1 88I      -0.073400
     24 C36        213.0330   253.8660   299.9730 c3         1 88I      -0.073400
     25 C37        213.7980   254.9220   299.1490 c3         1 88I      -0.089100
     26 C4         224.0410   234.6700   300.6460 c5         1 88I      -0.113400
     27 C19        217.0130   244.1000   294.6350 c5         1 88I       0.137300
     28 C5         224.9100   233.4390   300.2810 c5         1 88I      -0.177700
     29 C22        216.2580   245.1460   295.5100 c3         1 88I       0.179300
     30 C6         225.1920   233.3000   298.7570 c3         1 88I      -0.062400
     31 C7         224.6910   236.9310   294.9340 c3         1 88I      -0.074400
     32 C8         222.4090   239.5650   291.8200 c3         1 88I      -0.070400
     33 C9         226.5640   235.1470   294.6450 c3         1 88I      -0.074400
     34 CAA        225.5730   236.1150   293.9550 c3         1 88I      -0.074400
     35 CAB        223.8190   238.0120   294.2540 c3         1 88I      -0.075400
     36 CAC        221.7530   238.5120   292.7540 c3         1 88I      -0.072400
     37 CAD        221.4330   240.5940   291.1900 c3         1 88I       0.175300
     38 O2         219.7850   242.3940   291.5060 os         1 88I      -0.480000
     39 O3         222.7760   232.7140   300.9690 os         1 88I      -0.431100
     40 O4         217.8980   244.7620   293.6990 os         1 88I      -0.453000
     41 O5         215.5220   246.0400   294.6610 oh         1 88I      -0.706000
     42 OP3        220.5250   239.9220   290.3070 oh         1 88I      -0.719000
     43 H1         219.9510   240.7650   292.7780 h1         1 88I       0.057700
     44 H38        217.6740   244.4250   291.6610 h1         1 88I       0.062700
     45 H18        225.2340   233.4380   294.7400 hc         1 88I       0.037200
     46 H19        225.2520   234.4090   296.2040 hc         1 88I       0.037200
     47 H20        227.6250   233.5590   296.6730 hc         1 88I       0.037700
     48 H21        227.5000   232.5710   295.2280 hc         1 88I       0.037700
     49 H23        226.9260   230.9720   296.7530 hc         1 88I       0.041200
     50 H22        225.3150   231.5750   296.4260 hc         1 88I       0.041200
     51 H24        225.7150   231.1950   298.8340 hc         1 88I       0.049700
     52 H25        227.1000   232.2730   298.8310 hc         1 88I       0.049700
     53 H28        222.3990   233.9730   299.3690 h1         1 88I       0.058700
     54 H30        221.3870   235.8050   300.7830 hc         1 88I       0.050033
     55 H31        220.5340   234.2670   300.9880 hc         1 88I       0.050033
     56 H29        221.6610   234.8290   302.2370 hc         1 88I       0.050033
     57 H8         222.1530   236.6890   293.8400 hc         1 88I       0.040200
     58 H9         223.2110   236.9380   292.4570 hc         1 88I       0.040200
     59 H37        220.1350   244.4160   291.8350 h1         1 88I       0.060700
     60 H34        221.9020   241.7290   293.9930 hc         1 88I       0.055700
     61 H33        222.2360   242.8620   292.6680 hc         1 88I       0.055700
     62 H35        220.7040   244.1360   294.1940 hc         1 88I       0.059200
     63 H36        219.6650   242.7240   294.4010 hc         1 88I       0.059200
     64 H39        216.8770   242.1400   291.9260 hc         1 88I       0.059200
     65 H40        217.8410   241.8400   293.3720 hc         1 88I       0.059200
     66 H41        215.4060   243.7490   293.1520 hc         1 88I       0.052700
     67 H42        215.6130   242.4150   294.3010 hc         1 88I       0.052700
     68 H46        217.8880   246.5560   295.8220 hc         1 88I       0.053700
     69 H47        217.8180   245.2580   297.0060 hc         1 88I       0.053700
     70 H48        215.7690   246.2950   298.0330 hc         1 88I       0.041700
     71 H49        215.8600   247.6130   296.8640 hc         1 88I       0.041700
     72 H50        218.0670   246.9240   298.8830 hc         1 88I       0.037200
     73 H51        218.0980   248.2830   297.7670 hc         1 88I       0.037200
     74 H52        217.4980   248.9140   300.1180 hc         1 88I       0.035200
     75 H53        216.0660   247.8960   300.0400 hc         1 88I       0.035200
     76 H54        215.1160   249.3460   298.2300 hc         1 88I       0.039700
     77 H55        216.5850   250.3250   298.2280 hc         1 88I       0.039700
     78 H56        214.6670   250.0110   300.6050 hc         1 88I       0.034700
     79 H57        216.1270   251.0010   300.6040 hc         1 88I       0.034700
     80 H59        215.1740   252.4050   298.7580 hc         1 88I       0.038200
     81 H58        213.7070   251.4250   298.7630 hc         1 88I       0.038200
     82 H60        213.2980   252.0860   301.1670 hc         1 88I       0.035700
     83 H61        214.7200   253.1210   301.1180 hc         1 88I       0.035700
     84 H62        212.5640   254.3660   300.8290 hc         1 88I       0.036200
     85 H63        212.2160   253.4560   299.3650 hc         1 88I       0.036200
     86 H65        213.1310   255.7500   298.8820 hc         1 88I       0.031033
     87 H66        214.6370   255.3310   299.7250 hc         1 88I       0.031033
     88 H64        214.1900   254.4920   298.2200 hc         1 88I       0.031033
     89 H32        224.1930   234.9770   301.6880 hc         1 88I       0.064700
     90 H67        224.2230   235.5430   300.0080 hc         1 88I       0.064700
     91 H43        217.6270   243.4810   295.3040 h1         1 88I       0.041700
     92 H68        225.8780   233.4420   300.7930 hc         1 88I       0.089700
     93 H44        215.5590   244.5920   296.1520 h1         1 88I       0.025700
     94 H27        225.6690   234.2240   298.4120 hc         1 88I       0.045200
     95 H26        224.2510   233.2040   298.2010 hc         1 88I       0.045200
     96 H13        224.0370   236.2550   295.4980 hc         1 88I       0.035700
     97 H12        225.3410   237.4230   295.6680 hc         1 88I       0.035700
     98 H4         222.9370   239.0450   291.0120 hc         1 88I       0.046700
     99 H5         223.1740   240.1180   292.3780 hc         1 88I       0.046700
    100 H17        227.2090   235.7170   295.3250 hc         1 88I       0.037200
    101 H16        227.2210   234.7200   293.8760 hc         1 88I       0.037200
    102 H15        226.1480   236.8130   293.3340 hc         1 88I       0.039700
    103 H14        224.9350   235.5400   293.2720 hc         1 88I       0.039700
    104 H10        224.4730   238.7000   293.7060 hc         1 88I       0.035200
    105 H11        223.3280   238.6030   295.0380 hc         1 88I       0.035200
    106 H7         221.2710   239.0160   293.6010 hc         1 88I       0.045200
    107 H6         220.9580   237.9940   292.2050 hc         1 88I       0.045200
    108 H2         222.0410   241.3000   290.6080 h1         1 88I       0.032700
    109 H45        216.1140   246.1970   293.8910 ho         1 88I       0.496000
    110 H3         219.8080   240.5800   290.1400 ho         1 88I       0.517000
    111 O1         224.4850   231.3120   301.4470 o          1 88I      -0.493000
@<TRIPOS>BOND
     1     1    12 1   
     2     1    37 1   
     3     1    38 1   
     4     1    43 1   
     5     2    11 1   
     6     2    14 1   
     7     2    40 1   
     8     2    44 1   
     9     3     4 1   
    10     3    33 1   
    11     3    45 1   
    12     3    46 1   
    13     4     5 1   
    14     4    47 1   
    15     4    48 1   
    16     5     6 1   
    17     5    49 1   
    18     5    50 1   
    19     6    30 1   
    20     6    51 1   
    21     6    52 1   
    22     7    28 1   
    23     7    39 1   
    24     7   111 2   
    25     8     9 1   
    26     8    26 1   
    27     8    39 1   
    28     8    53 1   
    29     9    54 1   
    30     9    55 1   
    31     9    56 1   
    32    10    35 1   
    33    10    36 1   
    34    10    57 1   
    35    10    58 1   
    36    11    13 1   
    37    11    38 1   
    38    11    59 1   
    39    12    13 1   
    40    12    60 1   
    41    12    61 1   
    42    13    62 1   
    43    13    63 1   
    44    14    15 1   
    45    14    64 1   
    46    14    65 1   
    47    15    27 1   
    48    15    66 1   
    49    15    67 1   
    50    16    17 1   
    51    16    29 1   
    52    16    68 1   
    53    16    69 1   
    54    17    18 1   
    55    17    70 1   
    56    17    71 1   
    57    18    19 1   
    58    18    72 1   
    59    18    73 1   
    60    19    20 1   
    61    19    74 1   
    62    19    75 1   
    63    20    21 1   
    64    20    76 1   
    65    20    77 1   
    66    21    22 1   
    67    21    78 1   
    68    21    79 1   
    69    22    23 1   
    70    22    80 1   
    71    22    81 1   
    72    23    24 1   
    73    23    82 1   
    74    23    83 1   
    75    24    25 1   
    76    24    84 1   
    77    24    85 1   
    78    25    86 1   
    79    25    87 1   
    80    25    88 1   
    81    26    28 1   
    82    26    89 1   
    83    26    90 1   
    84    27    29 1   
    85    27    40 1   
    86    27    91 1   
    87    28    30 1   
    88    28    92 1   
    89    29    41 1   
    90    29    93 1   
    91    30    94 1   
    92    30    95 1   
    93    31    34 1   
    94    31    35 1   
    95    31    96 1   
    96    31    97 1   
    97    32    36 1   
    98    32    37 1   
    99    32    98 1   
   100    32    99 1   
   101    33    34 1   
   102    33   100 1   
   103    33   101 1   
   104    34   102 1   
   105    34   103 1   
   106    35   104 1   
   107    35   105 1   
   108    36   106 1   
   109    36   107 1   
   110    37    42 1   
   111    37   108 1   
   112    41   109 1   
   113    42   110 1   
@<TRIPOS>SUBSTRUCTURE
     1 88I         1 TEMP              0 ****  ****    0 ROOT
