@<TRIPOS>MOLECULE
88I
  111   113     1     0     0
SMALL
abcg2


@<TRIPOS>ATOM
      1 C1         220.6450   241.3370   293.3160 c5         1 88I       0.126300
      2 C14        218.1200   243.7270   293.8680 c5         1 88I       0.163300
      3 C10        225.9690   233.6150   294.7710 c3         1 88I      -0.077400
      4 C11        226.9820   232.5420   295.1600 c3         1 88I      -0.076400
      5 C12        226.3570   231.2680   295.7450 c3         1 88I      -0.072400
      6 C13        226.3610   231.1940   297.2710 c3         1 88I      -0.077400
      7 C16        224.8500   231.1500   300.0390 c          1 88I       0.657100
      8 C17        223.5480   233.0240   300.3010 c5         1 88I       0.169300
      9 C18        222.8090   233.6150   301.4760 c3         1 88I      -0.095100
     10 C2         222.9410   237.4180   293.2860 c3         1 88I      -0.077400
     11 C15        219.6040   243.3800   293.8140 c5         1 88I       0.166300
     12 C20        221.2720   241.8830   294.5920 c5         1 88I      -0.108400
     13 C21        220.1990   242.8330   295.1080 c5         1 88I      -0.101400
     14 C24        217.1750   242.5590   294.1330 c5         1 88I      -0.100400
     15 C25        216.0380   243.2460   294.8780 c5         1 88I      -0.113400
     16 C28        216.8100   246.5160   296.8940 c3         1 88I      -0.071400
     17 C29        216.0000   247.6290   297.5500 c3         1 88I      -0.074400
     18 C30        216.8750   248.5530   298.3910 c3         1 88I      -0.072400
     19 C31        216.1060   249.5980   299.1920 c3         1 88I      -0.072400
     20 C32        215.3940   250.6530   298.3540 c3         1 88I      -0.075400
     21 C33        214.7020   251.7050   299.2120 c3         1 88I      -0.077400
     22 C34        213.9990   252.7920   298.4080 c3         1 88I      -0.074400
     23 C35        213.3110   253.8220   299.2960 c3         1 88I      -0.073400
     24 C36        212.5550   254.9100   298.5390 c3         1 88I      -0.073400
     25 C37        213.4500   255.8250   297.7130 c3         1 88I      -0.089100
     26 C4         224.9880   233.5000   300.1340 c5         1 88I      -0.113400
     27 C19        216.7820   244.2910   295.7030 c5         1 88I       0.137300
     28 C5         225.6710   232.2970   299.4910 c5         1 88I      -0.177700
     29 C22        215.9760   245.5290   296.0890 c3         1 88I       0.179300
     30 C6         225.6230   232.3380   297.9550 c3         1 88I      -0.062400
     31 C7         224.6410   236.4390   294.9270 c3         1 88I      -0.074400
     32 C8         222.6040   239.8680   292.6710 c3         1 88I      -0.070400
     33 C9         226.6260   234.9280   294.3630 c3         1 88I      -0.074400
     34 CAA        225.6480   235.9930   293.8710 c3         1 88I      -0.074400
     35 CAB        223.8100   237.6530   294.5170 c3         1 88I      -0.075400
     36 CAC        221.9400   238.5360   293.0100 c3         1 88I      -0.072400
     37 CAD        221.6570   240.9790   292.2350 c3         1 88I       0.175300
     38 O2         219.7980   242.3740   292.8280 os         1 88I      -0.480000
     39 O3         223.6700   231.5950   300.4740 os         1 88I      -0.431100
     40 O4         217.9140   244.6530   294.9240 os         1 88I      -0.453000
     41 O5         215.4480   246.2070   294.9680 oh         1 88I      -0.706000
     42 OP3        221.0190   240.5810   291.0390 oh         1 88I      -0.719000
     43 H1         220.0230   240.4610   293.5460 h1         1 88I       0.057700
     44 H38        217.8390   244.2020   292.9170 h1         1 88I       0.062700
     45 H18        225.3560   233.2400   293.9430 hc         1 88I       0.037200
     46 H19        225.2740   233.7900   295.5970 hc         1 88I       0.037200
     47 H20        227.7000   232.9610   295.8750 hc         1 88I       0.037700
     48 H21        227.5690   232.2900   294.2730 hc         1 88I       0.037700
     49 H23        226.8930   230.3920   295.3730 hc         1 88I       0.041200
     50 H22        225.3290   231.1610   295.3780 hc         1 88I       0.041200
     51 H24        225.9290   230.2370   297.5730 hc         1 88I       0.049700
     52 H25        227.3980   231.1850   297.6230 hc         1 88I       0.049700
     53 H28        222.9790   233.1920   299.3820 h1         1 88I       0.058700
     54 H30        222.7210   234.6930   301.3380 hc         1 88I       0.050033
     55 H31        221.8020   233.2090   301.5660 hc         1 88I       0.050033
     56 H29        223.3460   233.4370   302.4090 hc         1 88I       0.050033
     57 H8         222.3910   236.4800   293.4170 hc         1 88I       0.040200
     58 H9         223.5710   237.2770   292.4020 hc         1 88I       0.040200
     59 H37        220.1610   244.2800   293.5180 h1         1 88I       0.060700
     60 H34        221.5240   241.0950   295.3010 hc         1 88I       0.055700
     61 H33        222.1920   242.4290   294.3610 hc         1 88I       0.055700
     62 H35        220.6010   243.6240   295.7400 hc         1 88I       0.059200
     63 H36        219.4600   242.2860   295.6980 hc         1 88I       0.059200
     64 H39        216.8540   242.0720   293.2130 hc         1 88I       0.059200
     65 H40        217.6390   241.7990   294.7660 hc         1 88I       0.059200
     66 H41        215.3520   243.7140   294.1680 hc         1 88I       0.052700
     67 H42        215.4580   242.5670   295.5040 hc         1 88I       0.052700
     68 H46        217.5820   246.9510   296.2520 hc         1 88I       0.053700
     69 H47        217.3390   245.9600   297.6750 hc         1 88I       0.053700
     70 H48        215.2280   247.1860   298.1900 hc         1 88I       0.041700
     71 H49        215.4720   248.2040   296.7860 hc         1 88I       0.041700
     72 H50        217.4610   247.9420   299.0860 hc         1 88I       0.037200
     73 H51        217.6030   249.0520   297.7420 hc         1 88I       0.037200
     74 H52        216.8020   250.1030   299.8700 hc         1 88I       0.035200
     75 H53        215.3760   249.0940   299.8360 hc         1 88I       0.035200
     76 H54        214.6560   250.1820   297.6970 hc         1 88I       0.039700
     77 H55        216.1190   251.1410   297.6930 hc         1 88I       0.039700
     78 H56        213.9770   251.2140   299.8700 hc         1 88I       0.034700
     79 H57        215.4390   252.1710   299.8750 hc         1 88I       0.034700
     80 H59        214.7280   253.2800   297.7540 hc         1 88I       0.038200
     81 H58        213.2570   252.3320   297.7450 hc         1 88I       0.038200
     82 H60        212.6140   253.3030   299.9620 hc         1 88I       0.035700
     83 H61        214.0560   254.2920   299.9490 hc         1 88I       0.035700
     84 H62        211.9960   255.5150   299.2580 hc         1 88I       0.036200
     85 H63        211.8060   254.4450   297.8900 hc         1 88I       0.036200
     86 H65        212.8760   256.6320   297.2570 hc         1 88I       0.031033
     87 H66        214.2230   256.2800   298.3350 hc         1 88I       0.031033
     88 H64        213.9510   255.2880   296.9060 hc         1 88I       0.031033
     89 H32        225.4260   233.7170   301.1110 hc         1 88I       0.064700
     90 H67        225.0490   234.4050   299.5310 hc         1 88I       0.064700
     91 H43        217.1220   243.8260   296.6410 h1         1 88I       0.041700
     92 H68        226.7100   232.1850   299.8090 hc         1 88I       0.089700
     93 H44        215.1650   245.1650   296.7390 h1         1 88I       0.025700
     94 H27        226.0720   233.2900   297.6610 hc         1 88I       0.045200
     95 H26        224.5830   232.3730   297.6120 hc         1 88I       0.045200
     96 H13        223.9640   235.6140   295.1700 hc         1 88I       0.035700
     97 H12        225.1770   236.6740   295.8520 hc         1 88I       0.035700
     98 H4         223.3380   239.7100   291.8740 hc         1 88I       0.046700
     99 H5         223.1750   240.2340   293.5290 hc         1 88I       0.046700
    100 H17        227.1910   235.3250   295.2130 hc         1 88I       0.037200
    101 H16        227.3620   234.7290   293.5770 hc         1 88I       0.037200
    102 H15        226.2160   236.8660   293.5330 hc         1 88I       0.039700
    103 H14        225.1220   235.6160   292.9890 hc         1 88I       0.039700
    104 H10        224.4810   238.5020   294.3470 hc         1 88I       0.035200
    105 H11        223.1650   237.9400   295.3540 hc         1 88I       0.035200
    106 H7         221.2920   238.6480   293.8860 hc         1 88I       0.045200
    107 H6         221.2900   238.2330   292.1870 hc         1 88I       0.045200
    108 H2         222.2660   241.8810   292.0570 h1         1 88I       0.032700
    109 H45        214.6560   245.7520   294.6700 ho         1 88I       0.496000
    110 H3         220.4270   241.2910   290.7690 ho         1 88I       0.517000
    111 O1         225.1360   229.9840   300.0990 o          1 88I      -0.493000
@<TRIPOS>BOND
     1     1    12 1   
     2     1    37 1   
     3     1    38 1   
     4     1    43 1   
     5     2    11 1   
     6     2    14 1   
     7     2    40 1   
     8     2    44 1   
     9     3     4 1   
    10     3    33 1   
    11     3    45 1   
    12     3    46 1   
    13     4     5 1   
    14     4    47 1   
    15     4    48 1   
    16     5     6 1   
    17     5    49 1   
    18     5    50 1   
    19     6    30 1   
    20     6    51 1   
    21     6    52 1   
    22     7    28 1   
    23     7    39 1   
    24     7   111 2   
    25     8     9 1   
    26     8    26 1   
    27     8    39 1   
    28     8    53 1   
    29     9    54 1   
    30     9    55 1   
    31     9    56 1   
    32    10    35 1   
    33    10    36 1   
    34    10    57 1   
    35    10    58 1   
    36    11    13 1   
    37    11    38 1   
    38    11    59 1   
    39    12    13 1   
    40    12    60 1   
    41    12    61 1   
    42    13    62 1   
    43    13    63 1   
    44    14    15 1   
    45    14    64 1   
    46    14    65 1   
    47    15    27 1   
    48    15    66 1   
    49    15    67 1   
    50    16    17 1   
    51    16    29 1   
    52    16    68 1   
    53    16    69 1   
    54    17    18 1   
    55    17    70 1   
    56    17    71 1   
    57    18    19 1   
    58    18    72 1   
    59    18    73 1   
    60    19    20 1   
    61    19    74 1   
    62    19    75 1   
    63    20    21 1   
    64    20    76 1   
    65    20    77 1   
    66    21    22 1   
    67    21    78 1   
    68    21    79 1   
    69    22    23 1   
    70    22    80 1   
    71    22    81 1   
    72    23    24 1   
    73    23    82 1   
    74    23    83 1   
    75    24    25 1   
    76    24    84 1   
    77    24    85 1   
    78    25    86 1   
    79    25    87 1   
    80    25    88 1   
    81    26    28 1   
    82    26    89 1   
    83    26    90 1   
    84    27    29 1   
    85    27    40 1   
    86    27    91 1   
    87    28    30 1   
    88    28    92 1   
    89    29    41 1   
    90    29    93 1   
    91    30    94 1   
    92    30    95 1   
    93    31    34 1   
    94    31    35 1   
    95    31    96 1   
    96    31    97 1   
    97    32    36 1   
    98    32    37 1   
    99    32    98 1   
   100    32    99 1   
   101    33    34 1   
   102    33   100 1   
   103    33   101 1   
   104    34   102 1   
   105    34   103 1   
   106    35   104 1   
   107    35   105 1   
   108    36   106 1   
   109    36   107 1   
   110    37    42 1   
   111    37   108 1   
   112    41   109 1   
   113    42   110 1   
@<TRIPOS>SUBSTRUCTURE
     1 88I         1 TEMP              0 ****  ****    0 ROOT
