@<TRIPOS>MOLECULE
88J
   58    62     1     0     0
SMALL
No Charge or Current Charge


@<TRIPOS>ATOM
      1 C18          6.8960     2.0650    -0.0830 ca         1 88J      -0.103000
      2 C17          5.9530     2.3360    -1.0880 ca         1 88J      -0.115500
      3 C19          6.6270     1.0810     0.8830 ca         1 88J      -0.115500
      4 C16          4.7420     1.6240    -1.1270 ca         1 88J      -0.087000
      5 C20          5.4150     0.3700     0.8440 ca         1 88J      -0.087000
      6 C8          -1.6100    -1.7970     0.0260 ca         1 88J      -0.070000
      7 C7          -0.3590    -2.3900    -0.2030 ca         1 88J      -0.104000
      8 C30         -4.3870    -1.2910     2.0850 ca         1 88J      -0.154500
      9 C34         -5.0540    -1.1820    -0.2220 ca         1 88J      -0.154500
     10 C10         -0.5200     0.3550     0.2730 ca         1 88J      -0.049000
     11 C31         -5.4170    -2.2260     2.2890 ca         1 88J       0.332900
     12 C33         -6.0580    -2.1200     0.0710 ca         1 88J       0.332900
     13 C24         -2.8190     1.2750    -1.8830 cc         1 88J       0.255900
     14 C26         -4.4120     2.7180    -1.9500 cd         1 88J       0.392400
     15 C11          0.7400    -0.2440     0.0380 ca         1 88J      -0.121000
     16 C15          4.4530     0.6300    -0.1610 cp         1 88J      -0.038000
     17 C14          3.1710    -0.1390    -0.2040 cp         1 88J      -0.104000
     18 C9          -1.7080    -0.4110     0.2780 ca         1 88J      -0.140300
     19 C29         -4.1880    -0.7310     0.8010 ca         1 88J      -0.072300
     20 C6           0.8220    -1.6330    -0.1990 ca         1 88J       0.331000
     21 C12          1.9360     0.5080     0.0370 ca         1 88J       0.192000
     22 C23         -3.4080     1.2000    -0.6480 cd         1 88J      -0.207300
     23 C4           3.1340    -1.5420    -0.4330 ca         1 88J       0.638900
     24 C1           4.3390    -3.7610    -0.2980 c3         1 88J       0.202600
     25 C3           5.3090    -1.8760    -1.6600 c3         1 88J       0.202600
     26 C21         -3.0620     0.2900     0.5160 c3         1 88J       0.370900
     27 N32         -6.2460    -2.6390     1.3040 nb         1 88J      -0.659000
     28 N25         -3.4290     2.2040    -2.6790 nc         1 88J      -0.675000
     29 N5           1.9940    -2.2540    -0.4260 nb         1 88J      -0.755000
     30 N27         -4.4480     2.1260    -0.6960 na         1 88J      -0.147500
     31 N2           4.2610    -2.3450    -0.7270 nh         1 88J      -0.772300
     32 O22         -2.9020     1.1170     1.6680 oh         1 88J      -0.651000
     33 Cl13         1.9050     2.2470     0.3770 cl         1 88J      -0.181000
     34 H46          7.8340     2.6150    -0.0530 ha         1 88J       0.113000
     35 H45          6.1600     3.0970    -1.8380 ha         1 88J       0.114500
     36 H47          7.3570     0.8690     1.6610 ha         1 88J       0.114500
     37 H44          4.0200     1.8380    -1.9120 ha         1 88J       0.120500
     38 H48          5.2170    -0.3930     1.5940 ha         1 88J       0.120500
     39 H42         -2.4920    -2.4320    -0.0010 ha         1 88J       0.124000
     40 H41         -0.3030    -3.4590    -0.3920 ha         1 88J       0.134000
     41 H55         -3.7580    -1.0200     2.9260 ha         1 88J       0.128500
     42 H58         -4.9590    -0.8210    -1.2420 ha         1 88J       0.128500
     43 H43         -0.5970     1.4260     0.4460 ha         1 88J       0.137000
     44 H56         -5.5810    -2.6610     3.2740 h4         1 88J       0.021600
     45 H57         -6.7310    -2.4710    -0.7100 h4         1 88J       0.021600
     46 H50         -1.9800     0.7060    -2.2620 h4         1 88J       0.044100
     47 H51         -5.1150     3.4860    -2.2510 h5         1 88J       0.053100
     48 H54         -5.8580     1.5100     0.7530 h1         1 88J       0.057033
     49 H53         -4.9120     2.9660     1.1840 h1         1 88J       0.057033
     50 H52         -6.2180     3.0730    -0.0300 h1         1 88J       0.057033
     51 H36          3.7870    -4.4070    -0.9940 h1         1 88J       0.042033
     52 H37          5.3830    -4.0990    -0.2650 h1         1 88J       0.042033
     53 H35          3.9190    -3.8850     0.7090 h1         1 88J       0.042033
     54 H38          4.9230    -1.0810    -2.3120 h1         1 88J       0.042033
     55 H39          6.1750    -1.4890    -1.1080 h1         1 88J       0.042033
     56 H40          5.6470    -2.6970    -2.3070 h1         1 88J       0.042033
     57 H49         -2.4430     0.5620     2.3300 ho         1 88J       0.454000
     58 C28         -5.4180     2.4370     0.3670 c3         1 88J       0.058900
@<TRIPOS>BOND
     1     1     2 ar  
     2     1     3 ar  
     3     1    34 1   
     4     2     4 ar  
     5     2    35 1   
     6     3     5 ar  
     7     3    36 1   
     8     4    16 ar  
     9     4    37 1   
    10     5    16 ar  
    11     5    38 1   
    12     6     7 ar  
    13     6    18 ar  
    14     6    39 1   
    15     7    20 ar  
    16     7    40 1   
    17     8    11 ar  
    18     8    19 ar  
    19     8    41 1   
    20     9    12 ar  
    21     9    19 ar  
    22     9    42 1   
    23    10    15 ar  
    24    10    18 ar  
    25    10    43 1   
    26    11    27 ar  
    27    11    44 1   
    28    12    27 ar  
    29    12    45 1   
    30    13    22 2   
    31    13    28 1   
    32    13    46 1   
    33    14    28 2   
    34    14    30 1   
    35    14    47 1   
    36    15    20 ar  
    37    15    21 ar  
    38    16    17 1   
    39    17    21 ar  
    40    17    23 ar  
    41    18    26 1   
    42    19    26 1   
    43    20    29 ar  
    44    21    33 1   
    45    22    26 1   
    46    22    30 1   
    47    23    29 ar  
    48    23    31 1   
    49    24    31 1   
    50    24    51 1   
    51    24    52 1   
    52    24    53 1   
    53    25    31 1   
    54    25    54 1   
    55    25    55 1   
    56    25    56 1   
    57    26    32 1   
    58    30    58 1   
    59    32    57 1   
    60    48    58 1   
    61    49    58 1   
    62    50    58 1   
@<TRIPOS>SUBSTRUCTURE
     1 88J         1 TEMP              0 ****  ****    0 ROOT
