@<TRIPOS>MOLECULE
88J
   58    62     1     0     0
SMALL
bcc


@<TRIPOS>ATOM
      1 C18          6.9470     1.6770     0.7140 ca         1 88J      -0.121000
      2 C17          6.1300     2.2590    -0.2480 ca         1 88J      -0.133500
      3 C19          6.5280     0.5260     1.3670 ca         1 88J      -0.133500
      4 C16          4.9010     1.6930    -0.5530 ca         1 88J      -0.105000
      5 C20          5.3010    -0.0430     1.0580 ca         1 88J      -0.105000
      6 C8          -1.6110    -1.6110    -0.1990 ca         1 88J      -0.088000
      7 C7          -0.4110    -2.2130    -0.4640 ca         1 88J      -0.187300
      8 C30         -4.0060    -0.7300     2.3860 ca         1 88J      -0.237800
      9 C34         -4.9130    -1.2500     0.2580 ca         1 88J      -0.237800
     10 C10         -0.5130     0.4810     0.2080 ca         1 88J      -0.067000
     11 C31         -4.8970    -1.6430     2.9280 ca         1 88J       0.398200
     12 C33         -5.7660    -2.1390     0.8970 ca         1 88J       0.398200
     13 C24         -3.0290     0.7970    -2.2120 cc         1 88J       0.321200
     14 C26         -4.7850     1.9670    -2.4200 cd         1 88J       0.392400
     15 C11          0.7340    -0.1210    -0.0450 ca         1 88J      -0.186300
     16 C15          4.4770     0.5350     0.0970 cp         1 88J      -0.038000
     17 C14          3.1700    -0.0920    -0.2070 cp         1 88J      -0.169300
     18 C9          -1.6780    -0.2440     0.1380 ca         1 88J      -0.140300
     19 C29         -4.0070    -0.5170     1.0120 ca         1 88J      -0.072300
     20 C6           0.7950    -1.4850    -0.4040 ca         1 88J       0.461600
     21 C12          1.9890     0.5370     0.0700 ca         1 88J       0.100400
     22 C23         -3.5210     0.9640    -0.9470 cd         1 88J      -0.221900
     23 C4           3.0830    -1.4620    -0.6700 ca         1 88J       0.704200
     24 C1           4.1220    -3.5960    -1.0970 c3         1 88J       0.202600
     25 C3           5.2410    -1.5950    -1.8550 c3         1 88J       0.202600
     26 C21         -3.0160     0.4610     0.3730 c3         1 88J       0.347700
     27 N32         -5.7690    -2.3400     2.2080 nb         1 88J      -0.659000
     28 N25         -3.8250     1.4250    -3.1230 nc         1 88J      -0.675000
     29 N5           1.9460    -2.1110    -0.7170 nb         1 88J      -0.755000
     30 N27         -4.6580     1.7210    -1.1000 na         1 88J      -0.168900
     31 N2           4.2150    -2.1560    -0.9940 nh         1 88J      -0.772300
     32 O22         -2.8540     1.6000     1.1860 oh         1 88J      -0.588800
     33 CL13         1.9980     2.1510     0.6870 cl         1 88J      -0.089400
     34 H46          7.9060     2.1190     0.9510 ha         1 88J       0.131000
     35 H45          6.4510     3.1540    -0.7640 ha         1 88J       0.132500
     36 H47          7.1570     0.0690     2.1200 ha         1 88J       0.132500
     37 H44          4.2770     2.1430    -1.3140 ha         1 88J       0.138500
     38 H48          4.9830    -0.9440     1.5670 ha         1 88J       0.138500
     39 H42         -2.5120    -2.2050    -0.2540 ha         1 88J       0.142000
     40 H41         -0.3670    -3.2620    -0.7300 ha         1 88J       0.152000
     41 H55         -3.3300    -0.2140     3.0540 ha         1 88J       0.146500
     42 H58         -4.9700    -1.1450    -0.8180 ha         1 88J       0.146500
     43 H43         -0.5480     1.5350     0.4480 ha         1 88J       0.155000
     44 H56         -4.9040    -1.8150     3.9990 h4         1 88J       0.021600
     45 H57         -6.4790    -2.7110     0.3150 h4         1 88J       0.021600
     46 H50         -2.1440     0.2550    -2.5080 h4         1 88J       0.044100
     47 H51         -5.6020     2.5560    -2.8090 h5         1 88J       0.053100
     48 H54         -6.0110     1.3770     0.4700 h1         1 88J       0.057033
     49 H53         -5.0650     2.8670     0.6140 h1         1 88J       0.057033
     50 H52         -6.3700     2.7520    -0.5740 h1         1 88J       0.057033
     51 H36          3.6570    -3.9260    -2.0310 h1         1 88J       0.042033
     52 H37          5.1310    -4.0050    -1.0570 h1         1 88J       0.042033
     53 H35          3.5520    -4.0080    -0.2680 h1         1 88J       0.042033
     54 H38          5.1410    -0.5220    -1.9660 h1         1 88J       0.042033
     55 H39          6.2360    -1.8060    -1.4610 h1         1 88J       0.042033
     56 H40          5.1690    -2.0350    -2.8550 h1         1 88J       0.042033
     57 H49         -2.3840     1.3610     1.9930 ho         1 88J       0.415000
     58 C28         -5.5700     2.2040    -0.0830 c3         1 88J       0.029600
@<TRIPOS>BOND
     1     1     2 ar  
     2     1     3 ar  
     3     1    34 1   
     4     2     4 ar  
     5     2    35 1   
     6     3     5 ar  
     7     3    36 1   
     8     4    16 ar  
     9     4    37 1   
    10     5    16 ar  
    11     5    38 1   
    12     6     7 ar  
    13     6    18 ar  
    14     6    39 1   
    15     7    20 ar  
    16     7    40 1   
    17     8    11 ar  
    18     8    19 ar  
    19     8    41 1   
    20     9    12 ar  
    21     9    19 ar  
    22     9    42 1   
    23    10    15 ar  
    24    10    18 ar  
    25    10    43 1   
    26    11    27 ar  
    27    11    44 1   
    28    12    27 ar  
    29    12    45 1   
    30    13    22 2   
    31    13    28 1   
    32    13    46 1   
    33    14    28 2   
    34    14    30 1   
    35    14    47 1   
    36    15    20 ar  
    37    15    21 ar  
    38    16    17 1   
    39    17    21 ar  
    40    17    23 ar  
    41    18    26 1   
    42    19    26 1   
    43    20    29 ar  
    44    21    33 1   
    45    22    26 1   
    46    22    30 1   
    47    23    29 ar  
    48    23    31 1   
    49    24    31 1   
    50    24    51 1   
    51    24    52 1   
    52    24    53 1   
    53    25    31 1   
    54    25    54 1   
    55    25    55 1   
    56    25    56 1   
    57    26    32 1   
    58    30    58 1   
    59    32    57 1   
    60    48    58 1   
    61    49    58 1   
    62    50    58 1   
@<TRIPOS>SUBSTRUCTURE
     1 88J         1 TEMP              0 ****  ****    0 ROOT
