@<TRIPOS>MOLECULE
88K
   85    89     1     0     0
SMALL
abcg2


@<TRIPOS>ATOM
      1 C1         -23.2760   -13.0730   -26.0910 c6         1 88K       0.199000
      2 C2         -23.8710   -14.2920   -25.3850 c6         1 88K      -0.098400
      3 C3         -23.7860   -14.1620   -23.8700 c6         1 88K      -0.072400
      4 C5         -24.0390   -11.6310   -24.1080 c6         1 88K       0.208000
      5 C6         -22.7350   -11.1590   -23.4600 c3         1 88K      -0.112100
      6 C7         -25.1450   -10.5530   -24.0420 c5         1 88K      -0.056700
      7 C8         -25.6980   -10.3300   -22.6030 c5         1 88K      -0.075400
      8 C9         -26.0460    -8.8290   -22.4730 c5         1 88K      -0.074400
      9 C11        -24.8270    -9.1180   -24.5100 c5         1 88K      -0.086700
     10 C12        -24.6100    -8.8100   -25.9850 c6         1 88K       0.192300
     11 C13        -24.4670    -7.3060   -26.2380 c6         1 88K      -0.074400
     12 C14        -25.5330    -6.4320   -25.5620 c6         1 88K      -0.045700
     13 C4         -24.5530   -12.9170   -23.4350 c6         1 88K      -0.099400
     14 C10        -25.9800    -8.2690   -23.9080 c5         1 88K      -0.038000
     15 C15        -25.6260    -6.7360   -24.0330 c6         1 88K      -0.015000
     16 C16        -26.7130    -5.8550   -23.3910 c6         1 88K      -0.071400
     17 O1         -27.5050    -1.6060   -27.9490 oh         1 88K      -0.668000
     18 C22        -27.2280    -2.8700   -27.3300 c6         1 88K       0.175300
     19 C21        -26.0230    -3.4580   -28.0390 c6         1 88K      -0.070400
     20 C20        -25.7140    -4.8620   -27.5260 c6         1 88K      -0.074400
     21 C23        -27.0680    -2.7880   -25.7930 c6         1 88K      -0.066000
     22 C24        -28.4410    -2.4160   -25.2030 c3         1 88K      -0.084600
     23 C25        -26.0850    -1.6820   -25.3800 c3         1 88K      -0.084600
     24 C18        -26.6890    -4.2250   -25.3070 c6         1 88K      -0.041700
     25 C19        -25.4770    -4.9230   -25.9990 c6         1 88K      -0.023000
     26 C26        -24.1080    -4.2770   -25.7310 c3         1 88K      -0.081100
     27 C17        -26.6200    -4.3820   -23.7860 c6         1 88K      -0.068400
     28 O2         -23.4260    -9.4150   -26.5160 oh         1 88K      -0.699000
     29 C27        -24.3120    -6.4220   -23.2860 c3         1 88K      -0.086100
     30 C28        -27.3310    -8.6190   -24.5720 c3         1 88K      -0.085100
     31 O          -23.8470   -11.8560   -25.5340 os         1 88K      -0.517000
     32 C          -21.7480   -13.0520   -26.0120 c3         1 88K      -0.100600
     33 C29        -23.7050   -13.0420   -27.5540 c3         1 88K      -0.100600
     34 H1         -24.9270   -14.3680   -25.6630 hc         1 88K       0.049200
     35 H2         -23.3790   -15.1950   -25.7520 hc         1 88K       0.049200
     36 H3         -24.2170   -15.0430   -23.3900 hc         1 88K       0.044200
     37 H4         -22.7460   -14.1010   -23.5420 hc         1 88K       0.044200
     38 H5         -22.9060   -10.8940   -22.4160 hc         1 88K       0.044367
     39 H6         -21.9780   -11.9390   -23.4790 hc         1 88K       0.044367
     40 H7         -22.3440   -10.2860   -23.9790 hc         1 88K       0.044367
     41 H8         -25.9540   -10.9560   -24.6550 hc         1 88K       0.058700
     42 H9         -26.5770   -10.9530   -22.4400 hc         1 88K       0.039700
     43 H10        -24.9690   -10.6220   -21.8490 hc         1 88K       0.039700
     44 H11        -25.3360    -8.3320   -21.8170 hc         1 88K       0.044200
     45 H12        -27.0360    -8.6900   -22.0340 hc         1 88K       0.044200
     46 H13        -23.9230    -8.8060   -23.9840 hc         1 88K       0.059700
     47 H14        -25.4730    -9.1750   -26.5570 h1         1 88K       0.025700
     48 H15        -23.4590    -7.0100   -25.9390 hc         1 88K       0.051700
     49 H16        -24.5210    -7.1660   -27.3180 hc         1 88K       0.051700
     50 H17        -26.4910    -6.7530   -25.9760 hc         1 88K       0.040700
     51 H18        -24.4990   -12.7890   -22.3540 hc         1 88K       0.048200
     52 H19        -25.6090   -13.0440   -23.6940 hc         1 88K       0.048200
     53 H20        -27.7080    -6.1980   -23.6760 hc         1 88K       0.039200
     54 H21        -26.6460    -5.9560   -22.3040 hc         1 88K       0.039200
     55 H22        -28.2480    -1.1950   -27.4950 ho         1 88K       0.439000
     56 H23        -28.0740    -3.5470   -27.5180 h1         1 88K       0.024700
     57 H24        -25.1650    -2.7890   -27.9380 hc         1 88K       0.053700
     58 H25        -26.2550    -3.5110   -29.1060 hc         1 88K       0.053700
     59 H26        -26.5570    -5.5130   -27.7820 hc         1 88K       0.043200
     60 H27        -24.8450    -5.2540   -28.0550 hc         1 88K       0.043200
     61 H28        -28.3990    -2.2910   -24.1220 hc         1 88K       0.034533
     62 H29        -28.8030    -1.4660   -25.6040 hc         1 88K       0.034533
     63 H30        -29.1880    -3.1820   -25.4290 hc         1 88K       0.034533
     64 H31        -25.9500    -1.6800   -24.2970 hc         1 88K       0.034533
     65 H32        -25.1070    -1.7750   -25.8400 hc         1 88K       0.034533
     66 H33        -26.4860    -0.7080   -25.6630 hc         1 88K       0.034533
     67 H34        -27.5490    -4.8290   -25.6260 hc         1 88K       0.037700
     68 H35        -23.8810    -4.1630   -24.6760 hc         1 88K       0.035033
     69 H36        -23.3210    -4.8860   -26.1770 hc         1 88K       0.035033
     70 H37        -24.0370    -3.2930   -26.1840 hc         1 88K       0.035033
     71 H38        -25.7160    -3.9170   -23.3870 hc         1 88K       0.040700
     72 H39        -27.4570    -3.8620   -23.3210 hc         1 88K       0.040700
     73 H40        -23.4620   -10.3620   -26.2660 ho         1 88K       0.477000
     74 H41        -24.3810    -6.7300   -22.2440 hc         1 88K       0.035367
     75 H42        -23.4400    -6.9040   -23.7220 hc         1 88K       0.035367
     76 H43        -24.1170    -5.3550   -23.2760 hc         1 88K       0.035367
     77 H44        -28.1300    -7.9940   -24.1770 hc         1 88K       0.034033
     78 H45        -27.3320    -8.5130   -25.6540 hc         1 88K       0.034033
     79 H46        -27.6040    -9.6510   -24.3520 hc         1 88K       0.034033
     80 H47        -21.3780   -13.1040   -24.9920 hc         1 88K       0.044700
     81 H48        -21.3440   -13.9060   -26.5580 hc         1 88K       0.044700
     82 H49        -21.3650   -12.1390   -26.4730 hc         1 88K       0.044700
     83 H50        -24.7920   -13.0870   -27.6320 hc         1 88K       0.044700
     84 H51        -23.3540   -12.1270   -28.0340 hc         1 88K       0.044700
     85 H52        -23.2790   -13.8950   -28.0850 hc         1 88K       0.044700
@<TRIPOS>BOND
     1     1     2 1   
     2     1    31 1   
     3     1    32 1   
     4     1    33 1   
     5     2     3 1   
     6     2    34 1   
     7     2    35 1   
     8     3    13 1   
     9     3    36 1   
    10     3    37 1   
    11     4     5 1   
    12     4     6 1   
    13     4    13 1   
    14     4    31 1   
    15     5    38 1   
    16     5    39 1   
    17     5    40 1   
    18     6     7 1   
    19     6     9 1   
    20     6    41 1   
    21     7     8 1   
    22     7    42 1   
    23     7    43 1   
    24     8    14 1   
    25     8    44 1   
    26     8    45 1   
    27     9    10 1   
    28     9    14 1   
    29     9    46 1   
    30    10    11 1   
    31    10    28 1   
    32    10    47 1   
    33    11    12 1   
    34    11    48 1   
    35    11    49 1   
    36    12    15 1   
    37    12    25 1   
    38    12    50 1   
    39    13    51 1   
    40    13    52 1   
    41    14    15 1   
    42    14    30 1   
    43    15    16 1   
    44    15    29 1   
    45    16    27 1   
    46    16    53 1   
    47    16    54 1   
    48    17    18 1   
    49    17    55 1   
    50    18    19 1   
    51    18    21 1   
    52    18    56 1   
    53    19    20 1   
    54    19    57 1   
    55    19    58 1   
    56    20    25 1   
    57    20    59 1   
    58    20    60 1   
    59    21    22 1   
    60    21    23 1   
    61    21    24 1   
    62    22    61 1   
    63    22    62 1   
    64    22    63 1   
    65    23    64 1   
    66    23    65 1   
    67    23    66 1   
    68    24    25 1   
    69    24    27 1   
    70    24    67 1   
    71    25    26 1   
    72    26    68 1   
    73    26    69 1   
    74    26    70 1   
    75    27    71 1   
    76    27    72 1   
    77    28    73 1   
    78    29    74 1   
    79    29    75 1   
    80    29    76 1   
    81    30    77 1   
    82    30    78 1   
    83    30    79 1   
    84    32    80 1   
    85    32    81 1   
    86    32    82 1   
    87    33    83 1   
    88    33    84 1   
    89    33    85 1   
@<TRIPOS>SUBSTRUCTURE
     1 88K         1 TEMP              0 ****  ****    0 ROOT
