@<TRIPOS>MOLECULE
88K
   85    89     1     0     0
SMALL
No Charge or Current Charge


@<TRIPOS>ATOM
      1 C1         -23.1430   -13.1470   -26.0800 c6         1 88K       0.199000
      2 C2         -23.7050   -14.4540   -25.4610 c6         1 88K      -0.098400
      3 C3         -23.7950   -14.3680   -23.9220 c6         1 88K      -0.072400
      4 C5         -24.0820   -11.7910   -24.1510 c6         1 88K       0.208000
      5 C6         -22.7390   -11.3270   -23.4950 c3         1 88K      -0.112100
      6 C7         -25.1830   -10.6700   -24.0010 c5         1 88K      -0.056700
      7 C8         -25.7120   -10.4150   -22.5350 c5         1 88K      -0.075400
      8 C9         -25.7720    -8.8620   -22.3620 c5         1 88K      -0.074400
      9 C11        -24.8500    -9.2120   -24.5050 c5         1 88K      -0.086700
     10 C12        -24.7810    -8.9340   -26.0340 c6         1 88K       0.192300
     11 C13        -24.6010    -7.3880   -26.3040 c6         1 88K      -0.074400
     12 C14        -25.6440    -6.4160   -25.5880 c6         1 88K      -0.045700
     13 C4         -24.6130   -13.1200   -23.5060 c6         1 88K      -0.099400
     14 C10        -25.9690    -8.3100   -23.8160 c5         1 88K      -0.038000
     15 C15        -25.6830    -6.7110   -24.0220 c6         1 88K      -0.015000
     16 C16        -26.8090    -5.7910   -23.3920 c6         1 88K      -0.071400
     17 O1         -27.4570    -1.3810   -27.9690 oh         1 88K      -0.668000
     18 C22        -27.2590    -2.6840   -27.4050 c6         1 88K       0.175300
     19 C21        -26.0740    -3.3640   -28.1250 c6         1 88K      -0.070400
     20 C20        -25.8200    -4.7970   -27.5860 c6         1 88K      -0.074400
     21 C23        -27.0780    -2.6300   -25.8420 c6         1 88K      -0.066000
     22 C24        -28.4230    -2.1010   -25.2230 c3         1 88K      -0.084600
     23 C25        -25.9880    -1.5850   -25.4110 c3         1 88K      -0.084600
     24 C18        -26.7920    -4.1120   -25.3320 c6         1 88K      -0.041700
     25 C19        -25.5760    -4.8740   -26.0340 c6         1 88K      -0.023000
     26 C26        -24.1670    -4.2280   -25.7350 c3         1 88K      -0.081100
     27 C17        -26.7470    -4.2680   -23.7740 c6         1 88K      -0.068400
     28 O2         -23.6970    -9.6350   -26.6390 oh         1 88K      -0.699000
     29 C27        -24.3300    -6.3110   -23.3160 c3         1 88K      -0.086100
     30 C28        -27.4350    -8.6790   -24.2990 c3         1 88K      -0.085100
     31 O          -23.8920   -12.0020   -25.5860 os         1 88K      -0.517000
     32 C          -21.6060   -12.9630   -25.8760 c3         1 88K      -0.100600
     33 C29        -23.3950   -13.1350   -27.6130 c3         1 88K      -0.100600
     34 H1         -24.7110   -14.6420   -25.8600 hc         1 88K       0.049200
     35 H2         -23.0870   -15.3110   -25.7580 hc         1 88K       0.049200
     36 H3         -24.2770   -15.2730   -23.5280 hc         1 88K       0.044200
     37 H4         -22.7910   -14.3420   -23.4770 hc         1 88K       0.044200
     38 H5         -22.9150   -10.7400   -22.5880 hc         1 88K       0.044367
     39 H6         -22.1160   -12.1680   -23.1790 hc         1 88K       0.044367
     40 H7         -22.1540   -10.6940   -24.1710 hc         1 88K       0.044367
     41 H8         -26.0020   -11.0640   -24.6130 hc         1 88K       0.058700
     42 H9         -26.6990   -10.8710   -22.3940 hc         1 88K       0.039700
     43 H10        -25.0710   -10.8520   -21.7620 hc         1 88K       0.039700
     44 H11        -24.8340    -8.5410   -21.9010 hc         1 88K       0.044200
     45 H12        -26.5740    -8.5520   -21.6820 hc         1 88K       0.044200
     46 H13        -23.8600    -8.9300   -24.1370 hc         1 88K       0.059700
     47 H14        -25.7260    -9.2580   -26.4910 h1         1 88K       0.025700
     48 H15        -23.5780    -7.1120   -26.0220 hc         1 88K       0.051700
     49 H16        -24.6490    -7.2520   -27.3900 hc         1 88K       0.051700
     50 H17        -26.6150    -6.7340   -25.9770 hc         1 88K       0.040700
     51 H18        -24.6100   -13.0440   -22.4100 hc         1 88K       0.048200
     52 H19        -25.6620   -13.2790   -23.7920 hc         1 88K       0.048200
     53 H20        -27.8000    -6.1230   -23.7120 hc         1 88K       0.039200
     54 H21        -26.8040    -5.8940   -22.2980 hc         1 88K       0.039200
     55 H22        -28.1830    -0.9670   -27.4550 ho         1 88K       0.439000
     56 H23        -28.1500    -3.2960   -27.6120 h1         1 88K       0.024700
     57 H24        -25.1740    -2.7440   -28.0520 hc         1 88K       0.053700
     58 H25        -26.2980    -3.4270   -29.1980 hc         1 88K       0.053700
     59 H26        -26.6800    -5.4230   -27.8620 hc         1 88K       0.043200
     60 H27        -24.9610    -5.2090   -28.1300 hc         1 88K       0.043200
     61 H28        -28.3400    -1.9100   -24.1470 hc         1 88K       0.034533
     62 H29        -28.7400    -1.1510   -25.6680 hc         1 88K       0.034533
     63 H30        -29.2420    -2.8150   -25.3710 hc         1 88K       0.034533
     64 H31        -25.7670    -1.6450   -24.3390 hc         1 88K       0.034533
     65 H32        -25.0460    -1.7030   -25.9520 hc         1 88K       0.034533
     66 H33        -26.3190    -0.5580   -25.6060 hc         1 88K       0.034533
     67 H34        -27.6900    -4.6700   -25.6360 hc         1 88K       0.037700
     68 H35        -24.1510    -3.6520   -24.8060 hc         1 88K       0.035033
     69 H36        -23.3680    -4.9700   -25.6670 hc         1 88K       0.035033
     70 H37        -23.8380    -3.5370   -26.5170 hc         1 88K       0.035033
     71 H38        -25.8610    -3.7900   -23.3410 hc         1 88K       0.040700
     72 H39        -27.6090    -3.7840   -23.3000 hc         1 88K       0.040700
     73 H40        -23.7490   -10.5580   -26.2620 ho         1 88K       0.477000
     74 H41        -24.3540    -6.5120   -22.2410 hc         1 88K       0.035367
     75 H42        -23.4540    -6.8200   -23.7290 hc         1 88K       0.035367
     76 H43        -24.1200    -5.2450   -23.3600 hc         1 88K       0.035367
     77 H44        -28.2010    -8.1960   -23.6850 hc         1 88K       0.034033
     78 H45        -27.6360    -8.4300   -25.3440 hc         1 88K       0.034033
     79 H46        -27.6720    -9.7430   -24.2170 hc         1 88K       0.034033
     80 H47        -21.2710   -13.2410   -24.8730 hc         1 88K       0.044700
     81 H48        -21.0420   -13.6070   -26.5620 hc         1 88K       0.044700
     82 H49        -21.2950   -11.9310   -26.0750 hc         1 88K       0.044700
     83 H50        -24.4670   -13.1750   -27.8400 hc         1 88K       0.044700
     84 H51        -22.9930   -12.2270   -28.0790 hc         1 88K       0.044700
     85 H52        -22.9230   -13.9960   -28.1030 hc         1 88K       0.044700
@<TRIPOS>BOND
     1     1     2 1   
     2     1    31 1   
     3     1    32 1   
     4     1    33 1   
     5     2     3 1   
     6     2    34 1   
     7     2    35 1   
     8     3    13 1   
     9     3    36 1   
    10     3    37 1   
    11     4     5 1   
    12     4     6 1   
    13     4    13 1   
    14     4    31 1   
    15     5    38 1   
    16     5    39 1   
    17     5    40 1   
    18     6     7 1   
    19     6     9 1   
    20     6    41 1   
    21     7     8 1   
    22     7    42 1   
    23     7    43 1   
    24     8    14 1   
    25     8    44 1   
    26     8    45 1   
    27     9    10 1   
    28     9    14 1   
    29     9    46 1   
    30    10    11 1   
    31    10    28 1   
    32    10    47 1   
    33    11    12 1   
    34    11    48 1   
    35    11    49 1   
    36    12    15 1   
    37    12    25 1   
    38    12    50 1   
    39    13    51 1   
    40    13    52 1   
    41    14    15 1   
    42    14    30 1   
    43    15    16 1   
    44    15    29 1   
    45    16    27 1   
    46    16    53 1   
    47    16    54 1   
    48    17    18 1   
    49    17    55 1   
    50    18    19 1   
    51    18    21 1   
    52    18    56 1   
    53    19    20 1   
    54    19    57 1   
    55    19    58 1   
    56    20    25 1   
    57    20    59 1   
    58    20    60 1   
    59    21    22 1   
    60    21    23 1   
    61    21    24 1   
    62    22    61 1   
    63    22    62 1   
    64    22    63 1   
    65    23    64 1   
    66    23    65 1   
    67    23    66 1   
    68    24    25 1   
    69    24    27 1   
    70    24    67 1   
    71    25    26 1   
    72    26    68 1   
    73    26    69 1   
    74    26    70 1   
    75    27    71 1   
    76    27    72 1   
    77    28    73 1   
    78    29    74 1   
    79    29    75 1   
    80    29    76 1   
    81    30    77 1   
    82    30    78 1   
    83    30    79 1   
    84    32    80 1   
    85    32    81 1   
    86    32    82 1   
    87    33    83 1   
    88    33    84 1   
    89    33    85 1   
@<TRIPOS>SUBSTRUCTURE
     1 88K         1 TEMP              0 ****  ****    0 ROOT
