@<TRIPOS>MOLECULE
88L
   22    22     1     0     0
SMALL
abcg2


@<TRIPOS>ATOM
      1 O01         -2.3010    -1.5500     0.5430 o          1 88L      -0.901500
      2 P02         -2.5410    -0.0800     0.2420 p5         1 88L       1.254900
      3 O03         -3.8310     0.2370    -0.4940 o          1 88L      -0.901500
      4 O04         -2.1640     0.8750     1.3620 o          1 88L      -0.901500
      5 O05         -1.3880     0.2870    -1.0200 os         1 88L      -0.440500
      6 C06         -0.0790     0.1950    -0.7470 ca         1 88L       0.296100
      7 C07          0.6550     1.3300    -0.3960 ca         1 88L      -0.183000
      8 C08          2.0250     1.2530    -0.1910 ca         1 88L      -0.095000
      9 C09          2.7110     0.0460    -0.3100 ca         1 88L      -0.211300
     10 C10          4.1910    -0.0400    -0.0490 c3         1 88L       0.004900
     11 C11          4.5090    -0.2550     1.4290 c3         1 88L      -0.083100
     12 C12          1.9700    -1.0850    -0.6410 ca         1 88L      -0.095000
     13 C13          0.5990    -1.0210    -0.8490 ca         1 88L      -0.183000
     14 H071         0.1450     2.2810    -0.3030 ha         1 88L       0.122000
     15 H081         2.5710     2.1540     0.0690 ha         1 88L       0.061500
     16 H101         4.6180    -0.8590    -0.6320 hc         1 88L       0.008700
     17 H102         4.6830     0.8730    -0.3940 hc         1 88L       0.008700
     18 H113         4.1230     0.5650     2.0370 hc         1 88L       0.018367
     19 H112         4.0580    -1.1790     1.7960 hc         1 88L       0.018367
     20 H111         5.5850    -0.3170     1.5960 hc         1 88L       0.018367
     21 H121         2.4750    -2.0400    -0.7420 ha         1 88L       0.061500
     22 H131         0.0470    -1.9150    -1.1120 ha         1 88L       0.122000
@<TRIPOS>BOND
     1     1     2 1   
     2     2     3 1   
     3     2     4 1   
     4     2     5 1   
     5     5     6 1   
     6     6     7 ar  
     7     6    13 ar  
     8     7     8 ar  
     9     7    14 1   
    10     8     9 ar  
    11     8    15 1   
    12     9    10 1   
    13     9    12 ar  
    14    10    11 1   
    15    10    16 1   
    16    10    17 1   
    17    11    18 1   
    18    11    19 1   
    19    11    20 1   
    20    12    13 ar  
    21    12    21 1   
    22    13    22 1   
@<TRIPOS>SUBSTRUCTURE
     1 88L         1 TEMP              0 ****  ****    0 ROOT
