@<TRIPOS>MOLECULE
88L
   22    22     1     0     0
SMALL
No Charge or Current Charge


@<TRIPOS>ATOM
      1 O01         -2.6100    -1.3530    -1.2750 o          1 88L      -0.901500
      2 P02         -2.6740    -0.3050    -0.2180 p5         1 88L       1.254900
      3 O03         -3.9450     0.4570    -0.3650 o          1 88L      -0.901500
      4 O04         -2.6450    -0.9480     1.1260 o          1 88L      -0.901500
      5 O05         -1.4330     0.7140    -0.3710 os         1 88L      -0.440500
      6 C06         -0.0900     0.4360    -0.3060 ca         1 88L       0.296100
      7 C07          0.8030     1.5090    -0.4750 ca         1 88L      -0.183000
      8 C08          2.1920     1.3000    -0.4210 ca         1 88L      -0.095000
      9 C09          2.7030     0.0090    -0.1970 ca         1 88L      -0.211300
     10 C10          4.2090    -0.2190    -0.1340 c3         1 88L       0.004900
     11 C11          4.7660    -0.0430     1.2900 c3         1 88L      -0.083100
     12 C12          1.8140    -1.0680    -0.0260 ca         1 88L      -0.095000
     13 C13          0.4250    -0.8580    -0.0800 ca         1 88L      -0.183000
     14 H071         0.4130     2.5080    -0.6480 ha         1 88L       0.122000
     15 H081         2.8670     2.1420    -0.5520 ha         1 88L       0.061500
     16 H101         4.4550    -1.2280    -0.4890 hc         1 88L       0.008700
     17 H102         4.7260     0.4760    -0.8070 hc         1 88L       0.008700
     18 H113         4.5740     0.9730     1.6570 hc         1 88L       0.018367
     19 H112         4.2980    -0.7550     1.9790 hc         1 88L       0.018367
     20 H111         5.8490    -0.2130     1.3000 hc         1 88L       0.018367
     21 H121         2.1990    -2.0700     0.1520 ha         1 88L       0.061500
     22 H131        -0.2360    -1.7070     0.0560 ha         1 88L       0.122000
@<TRIPOS>BOND
     1     1     2 1   
     2     2     3 1   
     3     2     4 1   
     4     2     5 1   
     5     5     6 1   
     6     6     7 ar  
     7     6    13 ar  
     8     7     8 ar  
     9     7    14 1   
    10     8     9 ar  
    11     8    15 1   
    12     9    10 1   
    13     9    12 ar  
    14    10    11 1   
    15    10    16 1   
    16    10    17 1   
    17    11    18 1   
    18    11    19 1   
    19    11    20 1   
    20    12    13 ar  
    21    12    21 1   
    22    13    22 1   
@<TRIPOS>SUBSTRUCTURE
     1 88L         1 TEMP              0 ****  ****    0 ROOT
