@<TRIPOS>MOLECULE
88N
   60    62     1     0     0
SMALL
No Charge or Current Charge


@<TRIPOS>ATOM
      1 C23         -5.5990    -0.7860    -1.5280 ca         1 88N      -0.115000
      2 C27         -5.1620    -0.7950     0.8620 ca         1 88N      -0.115000
      3 C24         -6.7250     0.0280    -1.3180 ca         1 88N      -0.107000
      4 C26         -6.2880     0.0200     1.0710 ca         1 88N      -0.107000
      5 C5           9.1220    -1.2590     1.4020 ca         1 88N      -0.028000
      6 C6           7.7970    -1.5610     1.0290 ca         1 88N      -0.170000
      7 C8           7.6880     0.4830    -0.2920 ca         1 88N      -0.103000
      8 C22         -4.8110    -1.2030    -0.4380 ca         1 88N      -0.145300
      9 C25         -7.0780     0.4370    -0.0180 ca         1 88N       0.005700
     10 C4           9.7220    -0.0840     0.9240 ca         1 88N       0.057400
     11 C7           7.0680    -0.6980     0.1800 ca         1 88N      -0.002000
     12 C9           9.0090     0.7590     0.0970 ca         1 88N      -0.148000
     13 C2          11.2470     1.4660     0.6030 cc         1 88N       0.388200
     14 C12          4.7780    -0.4940    -0.9700 c          1 88N       0.607100
     15 C17          0.1970    -1.2460    -1.3400 c          1 88N       0.594100
     16 C30         -9.8180    -0.4580     1.2610 c          1 88N       0.741000
     17 C33        -10.8540     1.4580     0.1360 c          1 88N       0.741000
     18 C1          12.5570     2.1910     0.7150 c3         1 88N      -0.114400
     19 C21         -3.5880    -2.0810    -0.6650 c3         1 88N      -0.009100
     20 C28         -8.2960     1.3270     0.2050 c3         1 88N      -0.006100
     21 C14          3.4530    -1.2570    -1.0280 c3         1 88N      -0.187400
     22 C19         -1.0490    -2.1120    -1.1230 c3         1 88N      -0.154400
     23 C20         -2.3100    -1.2460    -0.8930 c3         1 88N      -0.069400
     24 C15          2.3510    -0.4920    -0.2720 c3         1 88N       0.116000
     25 C29         -9.6360     0.5460     0.1310 c3         1 88N      -0.304700
     26 N3          11.0210     0.3040     1.2320 nd         1 88N      -0.532100
     27 N11          5.7360    -1.0730    -0.1480 ns         1 88N      -0.149000
     28 N16          1.0800    -1.2210    -0.2840 ns         1 88N      -0.521900
     29 O13          4.9550     0.5230    -1.6290 o          1 88N      -0.571100
     30 O18          0.4050    -0.6420    -2.3820 o          1 88N      -0.594100
     31 O31         -9.6890    -0.0950     2.4210 o          1 88N      -0.770000
     32 O34        -10.9710     2.3060     1.0070 o          1 88N      -0.770000
     33 O32        -10.0390    -1.6210     0.9570 o          1 88N      -0.770000
     34 O35        -11.6380     1.3610    -0.7970 o          1 88N      -0.770000
     35 S10          9.9420     2.1660    -0.3820 ss         1 88N       0.013800
     36 H23         -5.3380    -1.0910    -2.5380 ha         1 88N       0.076500
     37 H24         -7.3260     0.3440    -2.1680 ha         1 88N       0.120500
     38 H27         -4.5610    -1.1070     1.7130 ha         1 88N       0.076500
     39 H26         -6.5490     0.3260     2.0810 ha         1 88N       0.120500
     40 H8           7.1740     1.1850    -0.9410 ha         1 88N       0.165000
     41 H211        -3.4360    -2.7440     0.1960 hc         1 88N       0.026200
     42 H212        -3.7490    -2.7360    -1.5310 hc         1 88N       0.026200
     43 H281        -8.2190     1.8480     1.1670 hc         1 88N       0.040700
     44 H282        -8.3080     2.1140    -0.5600 hc         1 88N       0.040700
     45 H11          5.4290    -1.9220     0.3080 hn         1 88N       0.151000
     46 H11C        12.8290     2.6540    -0.2410 hc         1 88N       0.057033
     47 H12C        12.4960     2.9800     1.4720 hc         1 88N       0.057033
     48 H13C        13.3650     1.5070     1.0000 hc         1 88N       0.057033
     49 H141         3.1530    -1.3580    -2.0770 hc         1 88N       0.069200
     50 H142         3.5650    -2.2490    -0.5740 hc         1 88N       0.069200
     51 H191        -1.2090    -2.7280    -2.0160 hc         1 88N       0.048700
     52 H192        -0.9080    -2.7580    -0.2480 hc         1 88N       0.048700
     53 H16          0.8210    -1.7540     0.5380 hn         1 88N       0.309500
     54 H29         -9.6670    -0.0190    -0.8100 hc         1 88N       0.017700
     55 H201        -2.4630    -0.5890    -1.7590 hc         1 88N       0.058200
     56 H202        -2.1490    -0.5950    -0.0250 hc         1 88N       0.058200
     57 H151         2.6560    -0.3410     0.7730 h1         1 88N       0.065200
     58 H152         2.2030     0.4980    -0.7260 h1         1 88N       0.065200
     59 H5           9.6760    -1.9290     2.0550 ha         1 88N       0.128000
     60 H6           7.3360    -2.4730     1.4020 ha         1 88N       0.112000
@<TRIPOS>BOND
     1     1     3 ar  
     2     1     8 ar  
     3     1    36 1   
     4     2     4 ar  
     5     2     8 ar  
     6     2    38 1   
     7     3     9 ar  
     8     3    37 1   
     9     4     9 ar  
    10     4    39 1   
    11     5     6 ar  
    12     5    10 ar  
    13     5    59 1   
    14     6    11 ar  
    15     6    60 1   
    16     7    11 ar  
    17     7    12 ar  
    18     7    40 1   
    19     8    19 1   
    20     9    20 1   
    21    10    12 ar  
    22    10    26 1   
    23    11    27 1   
    24    12    35 1   
    25    13    18 1   
    26    13    26 2   
    27    13    35 1   
    28    14    21 1   
    29    14    27 1   
    30    14    29 2   
    31    15    22 1   
    32    15    28 1   
    33    15    30 2   
    34    16    25 1   
    35    16    31 1   
    36    16    33 1   
    37    17    25 1   
    38    17    32 1   
    39    17    34 1   
    40    18    46 1   
    41    18    47 1   
    42    18    48 1   
    43    19    23 1   
    44    19    41 1   
    45    19    42 1   
    46    20    25 1   
    47    20    43 1   
    48    20    44 1   
    49    21    24 1   
    50    21    49 1   
    51    21    50 1   
    52    22    23 1   
    53    22    51 1   
    54    22    52 1   
    55    23    55 1   
    56    23    56 1   
    57    24    28 1   
    58    24    57 1   
    59    24    58 1   
    60    25    54 1   
    61    27    45 1   
    62    28    53 1   
@<TRIPOS>SUBSTRUCTURE
     1 88N         1 TEMP              0 ****  ****    0 ROOT
