@<TRIPOS>MOLECULE
88N
   60    62     1     0     0
SMALL
abcg2


@<TRIPOS>ATOM
      1 C23         -5.1600    -0.3650    -1.1750 ca         1 88N      -0.115000
      2 C27         -5.7400    -1.0400     1.0370 ca         1 88N      -0.115000
      3 C24         -6.3020     0.4170    -1.2350 ca         1 88N      -0.107000
      4 C26         -6.8900    -0.2610     0.9730 ca         1 88N      -0.107000
      5 C5           9.4700    -1.5280    -0.2990 ca         1 88N      -0.028000
      6 C6           8.1250    -1.8080    -0.2100 ca         1 88N      -0.170000
      7 C8           7.5670     0.5420    -0.0190 ca         1 88N      -0.103000
      8 C22         -4.8560    -1.1080    -0.0340 ca         1 88N      -0.145300
      9 C25         -7.1920     0.4860    -0.1620 ca         1 88N       0.005700
     10 C4           9.8920    -0.2000    -0.2520 ca         1 88N       0.057400
     11 C7           7.1640    -0.7880    -0.0720 ca         1 88N      -0.002000
     12 C9           8.9280     0.8060    -0.1120 ca         1 88N      -0.148000
     13 C2          11.2640     1.5190    -0.2620 cc         1 88N       0.388200
     14 C12          4.7050    -0.4600     0.1320 c          1 88N       0.607100
     15 C17          0.1820    -1.0320     0.2180 c          1 88N       0.594100
     16 C30         -9.9420    -0.7240    -0.3750 c          1 88N       0.741000
     17 C33        -10.8240     1.4540    -1.2080 c          1 88N       0.741000
     18 C1          12.5200     2.3100    -0.3310 c3         1 88N      -0.114400
     19 C21         -3.5920    -1.9210     0.0370 c3         1 88N      -0.009100
     20 C28         -8.4440     1.3110    -0.2560 c3         1 88N      -0.006100
     21 C14          3.4170    -1.2510     0.0820 c3         1 88N      -0.187400
     22 C19         -1.0700    -1.8820     0.2010 c3         1 88N      -0.154400
     23 C20         -2.3430    -1.0470     0.1380 c3         1 88N      -0.069400
     24 C15          2.4320    -0.7880     1.1550 c3         1 88N       0.116000
     25 C29         -9.5470     0.6040    -1.0440 c3         1 88N      -0.304700
     26 N3          11.1930     0.2380    -0.3320 nd         1 88N      -0.532100
     27 N11          5.8310    -1.2040    -0.0040 ns         1 88N      -0.149000
     28 N16          1.1520    -1.4470     1.0520 ns         1 88N      -0.521900
     29 O13          4.7060     0.7520     0.2650 o          1 88N      -0.571100
     30 O18          0.3050    -0.0390    -0.4870 o          1 88N      -0.594100
     31 O31        -10.3050    -0.6450     0.8190 o          1 88N      -0.770000
     32 O34        -10.8340     2.6110    -0.7410 o          1 88N      -0.770000
     33 O32         -9.8820    -1.7700    -1.0530 o          1 88N      -0.770000
     34 O35        -11.7680     0.8990    -1.8100 o          1 88N      -0.770000
     35 S10          9.7250     2.3410    -0.0840 ss         1 88N       0.013800
     36 H23         -4.4920    -0.3980    -2.0290 ha         1 88N       0.076500
     37 H24         -6.5100     0.9880    -2.1340 ha         1 88N       0.120500
     38 H27         -5.5310    -1.6060     1.9380 ha         1 88N       0.076500
     39 H26         -7.5700    -0.2420     1.8160 ha         1 88N       0.120500
     40 H8           6.8560     1.3450     0.0850 ha         1 88N       0.165000
     41 H211        -3.6380    -2.5960     0.8960 hc         1 88N       0.026200
     42 H212        -3.5090    -2.5570    -0.8500 hc         1 88N       0.026200
     43 H281        -8.8120     1.5430     0.7440 hc         1 88N       0.040700
     44 H282        -8.2130     2.2650    -0.7340 hc         1 88N       0.040700
     45 H11          5.6970    -2.2010    -0.0810 hn         1 88N       0.151000
     46 H11C        12.5330     2.9420    -1.2210 hc         1 88N       0.057033
     47 H12C        12.6220     2.9630     0.5350 hc         1 88N       0.057033
     48 H13C        13.3760     1.6400    -0.3680 hc         1 88N       0.057033
     49 H141         2.9800    -1.0870    -0.9080 hc         1 88N       0.069200
     50 H142         3.5960    -2.3240     0.1750 hc         1 88N       0.069200
     51 H191        -1.0130    -2.5280    -0.6820 hc         1 88N       0.048700
     52 H192        -1.0990    -2.5490     1.0650 hc         1 88N       0.048700
     53 H16          1.0120    -2.2910     1.5820 hn         1 88N       0.309500
     54 H29         -9.1670     0.3860    -2.0500 hc         1 88N       0.017700
     55 H201        -2.2980    -0.3750    -0.7220 hc         1 88N       0.058200
     56 H202        -2.4150    -0.4120     1.0260 hc         1 88N       0.058200
     57 H151         2.8340    -1.0000     2.1460 h1         1 88N       0.065200
     58 H152         2.2840     0.2880     1.0880 h1         1 88N       0.065200
     59 H5          10.1920    -2.3270    -0.4060 ha         1 88N       0.128000
     60 H6           7.7970    -2.8400    -0.2480 ha         1 88N       0.112000
@<TRIPOS>BOND
     1     1     3 ar  
     2     1     8 ar  
     3     1    36 1   
     4     2     4 ar  
     5     2     8 ar  
     6     2    38 1   
     7     3     9 ar  
     8     3    37 1   
     9     4     9 ar  
    10     4    39 1   
    11     5     6 ar  
    12     5    10 ar  
    13     5    59 1   
    14     6    11 ar  
    15     6    60 1   
    16     7    11 ar  
    17     7    12 ar  
    18     7    40 1   
    19     8    19 1   
    20     9    20 1   
    21    10    12 ar  
    22    10    26 1   
    23    11    27 1   
    24    12    35 1   
    25    13    18 1   
    26    13    26 2   
    27    13    35 1   
    28    14    21 1   
    29    14    27 1   
    30    14    29 2   
    31    15    22 1   
    32    15    28 1   
    33    15    30 2   
    34    16    25 1   
    35    16    31 1   
    36    16    33 1   
    37    17    25 1   
    38    17    32 1   
    39    17    34 1   
    40    18    46 1   
    41    18    47 1   
    42    18    48 1   
    43    19    23 1   
    44    19    41 1   
    45    19    42 1   
    46    20    25 1   
    47    20    43 1   
    48    20    44 1   
    49    21    24 1   
    50    21    49 1   
    51    21    50 1   
    52    22    23 1   
    53    22    51 1   
    54    22    52 1   
    55    23    55 1   
    56    23    56 1   
    57    24    28 1   
    58    24    57 1   
    59    24    58 1   
    60    25    54 1   
    61    27    45 1   
    62    28    53 1   
@<TRIPOS>SUBSTRUCTURE
     1 88N         1 TEMP              0 ****  ****    0 ROOT
