@<TRIPOS>MOLECULE
88O
   38    40     1     0     0
SMALL
abcg2


@<TRIPOS>ATOM
      1 C10         40.0290     2.2780    21.7740 ca         1 88O       0.008000
      2 C15         44.8510    -0.8350    22.3740 c3         1 88O      -0.023200
      3 C17         44.9400    -3.3260    22.9990 cc         1 88O      -0.156100
      4 C20         44.9120    -2.9150    20.7890 ca         1 88O      -0.094800
      5 C21         44.8980    -2.4190    19.4800 ca         1 88O      -0.041000
      6 C22         44.9190    -3.3040    18.4160 ca         1 88O      -0.140000
      7 C02         43.9180     4.0960    22.4850 c          1 88O       0.722600
      8 C04         42.5720     3.4170    22.2450 ca         1 88O      -0.251600
      9 C05         41.4560     4.2120    22.1070 ca         1 88O       0.033000
     10 C06         40.1910     3.6660    21.8760 ca         1 88O      -0.294200
     11 C11         41.1200     1.4600    21.9060 ca         1 88O      -0.273000
     12 C12         42.4180     1.9920    22.1480 ca         1 88O       0.420000
     13 C14         43.4530    -0.2580    22.1390 c3         1 88O       0.235800
     14 C16         44.9100    -2.3010    22.0900 cd         1 88O      -0.119400
     15 C19         44.9480    -4.3220    20.9900 ca         1 88O      -0.041200
     16 C23         44.9530    -4.6860    18.6580 ca         1 88O       0.145000
     17 C25         44.9690    -5.2280    19.9300 ca         1 88O      -0.130000
     18 N07         39.0610     4.5230    21.7370 no         1 88O       0.691200
     19 N13         43.4770     1.1840    22.2810 nu         1 88O      -0.970200
     20 N18         44.9620    -4.5400    22.3440 na         1 88O      -0.236700
     21 O01         44.9390     3.3510    22.5880 o          1 88O      -0.714000
     22 O03         43.9270     5.3450    22.5610 o          1 88O      -0.714000
     23 O08         37.9470     4.0200    21.5330 o          1 88O      -0.454000
     24 O09         39.2170     5.7490    21.8240 o          1 88O      -0.454000
     25 CL24        44.9780    -5.7730    17.2760 cl         1 88O      -0.236000
     26 H1          39.0500     1.8620    21.5920 ha         1 88O       0.121000
     27 H2          45.5580    -0.3040    21.7280 hc         1 88O       0.062200
     28 H3          45.1500    -0.6390    23.4060 hc         1 88O       0.062200
     29 H6          44.9090    -2.9420    17.3980 ha         1 88O       0.127000
     30 H7          41.5780     5.2810    22.1790 ha         1 88O       0.164000
     31 H8          40.9910     0.3910    21.8250 ha         1 88O       0.102000
     32 H9          42.7540    -0.7010    22.8550 h1         1 88O       0.032200
     33 H10         43.1030    -0.5310    21.1380 h1         1 88O       0.032200
     34 H11         44.9970    -6.2970    20.0900 ha         1 88O       0.124000
     35 H12         44.3540     1.6920    22.4260 hn         1 88O       0.567000
     36 H13         44.9950    -5.4410    22.7910 hn         1 88O       0.348000
     37 H4          44.9510    -3.2870    24.0770 h4         1 88O       0.215000
     38 H5          44.8700    -1.3520    19.2940 ha         1 88O       0.132000
@<TRIPOS>BOND
     1     1    10 ar  
     2     1    11 ar  
     3     1    26 1   
     4     2    13 1   
     5     2    14 1   
     6     2    27 1   
     7     2    28 1   
     8     3    14 2   
     9     3    20 1   
    10     3    37 1   
    11     4     5 ar  
    12     4    14 1   
    13     4    15 ar  
    14     5     6 ar  
    15     5    38 1   
    16     6    16 ar  
    17     6    29 1   
    18     7     8 1   
    19     7    21 1   
    20     7    22 1   
    21     8     9 ar  
    22     8    12 ar  
    23     9    10 ar  
    24     9    30 1   
    25    10    18 1   
    26    11    12 ar  
    27    11    31 1   
    28    12    19 1   
    29    13    19 1   
    30    13    32 1   
    31    13    33 1   
    32    15    17 ar  
    33    15    20 1   
    34    16    17 ar  
    35    16    25 1   
    36    17    34 1   
    37    18    23 1   
    38    18    24 1   
    39    19    35 1   
    40    20    36 1   
@<TRIPOS>SUBSTRUCTURE
     1 88O         1 TEMP              0 ****  ****    0 ROOT
