@<TRIPOS>MOLECULE
88O
   38    40     1     0     0
SMALL
No Charge or Current Charge


@<TRIPOS>ATOM
      1 C10         39.9370     2.3480    22.0880 ca         1 88O       0.008000
      2 C15         44.8080    -0.9320    22.4930 c3         1 88O      -0.023200
      3 C17         44.8710    -3.4420    23.0640 cc         1 88O      -0.156100
      4 C20         44.9430    -2.9360    20.8060 ca         1 88O      -0.094800
      5 C21         44.9740    -2.3100    19.5520 ca         1 88O      -0.041000
      6 C22         45.0450    -3.1400    18.4110 ca         1 88O      -0.140000
      7 C02         43.9740     3.9470    22.1260 c          1 88O       0.722600
      8 C04         42.5830     3.3560    22.1050 ca         1 88O      -0.251600
      9 C05         41.4840     4.2140    21.8670 ca         1 88O       0.033000
     10 C06         40.1610     3.7180    21.8540 ca         1 88O      -0.294200
     11 C11         41.0230     1.4950    22.3240 ca         1 88O      -0.273000
     12 C12         42.3390     1.9840    22.3270 ca         1 88O       0.420000
     13 C14         43.4160    -0.3270    22.2220 c3         1 88O       0.235800
     14 C16         44.8720    -2.3980    22.1460 cd         1 88O      -0.119400
     15 C19         44.9800    -4.2940    20.9430 ca         1 88O      -0.041200
     16 C23         45.0820    -4.5480    18.5530 ca         1 88O       0.145000
     17 C25         45.0500    -5.1430    19.8310 ca         1 88O      -0.130000
     18 N07         39.0110     4.6390    21.6000 no         1 88O       0.691200
     19 N13         43.3850     1.1030    22.5620 nu         1 88O      -0.970200
     20 N18         44.9380    -4.6190    22.2870 na         1 88O      -0.236700
     21 O01         44.9420     3.2110    21.9900 o          1 88O      -0.714000
     22 O03         44.0820     5.1540    22.2760 o          1 88O      -0.714000
     23 O08         37.8680     4.1640    21.6020 o          1 88O      -0.454000
     24 O09         39.2520     5.8350    21.3960 o          1 88O      -0.454000
     25 Cl24        45.1700    -5.5650    17.1200 cl         1 88O      -0.236000
     26 H1          38.9290     1.9350    22.0900 ha         1 88O       0.121000
     27 H2          45.5590    -0.3830    21.9130 hc         1 88O       0.062200
     28 H3          45.0610    -0.7860    23.5500 hc         1 88O       0.062200
     29 H6          45.0710    -2.6960    17.4200 ha         1 88O       0.127000
     30 H7          41.6630     5.2740    21.6900 ha         1 88O       0.164000
     31 H8          40.8270     0.4440    22.5070 ha         1 88O       0.102000
     32 H9          42.6700    -0.8730    22.8160 h1         1 88O       0.032200
     33 H10         43.1670    -0.4600    21.1610 h1         1 88O       0.032200
     34 H11         45.0790    -6.2230    19.9460 ha         1 88O       0.124000
     35 H12         44.2810     1.6050    22.4470 hn         1 88O       0.567000
     36 H13         44.9540    -5.5650    22.6550 hn         1 88O       0.348000
     37 H4          44.8280    -3.4430    24.1500 h4         1 88O       0.215000
     38 H5          44.9460    -1.2270    19.4580 ha         1 88O       0.132000
@<TRIPOS>BOND
     1     1    10 ar  
     2     1    11 ar  
     3     1    26 1   
     4     2    13 1   
     5     2    14 1   
     6     2    27 1   
     7     2    28 1   
     8     3    14 2   
     9     3    20 1   
    10     3    37 1   
    11     4     5 ar  
    12     4    14 1   
    13     4    15 ar  
    14     5     6 ar  
    15     5    38 1   
    16     6    16 ar  
    17     6    29 1   
    18     7     8 1   
    19     7    21 1   
    20     7    22 1   
    21     8     9 ar  
    22     8    12 ar  
    23     9    10 ar  
    24     9    30 1   
    25    10    18 1   
    26    11    12 ar  
    27    11    31 1   
    28    12    19 1   
    29    13    19 1   
    30    13    32 1   
    31    13    33 1   
    32    15    17 ar  
    33    15    20 1   
    34    16    17 ar  
    35    16    25 1   
    36    17    34 1   
    37    18    23 1   
    38    18    24 1   
    39    19    35 1   
    40    20    36 1   
@<TRIPOS>SUBSTRUCTURE
     1 88O         1 TEMP              0 ****  ****    0 ROOT
