@<TRIPOS>MOLECULE
88P
   31    32     1     0     0
SMALL
abcg2


@<TRIPOS>ATOM
      1 C4           1.5920    -0.3260    -0.0610 cc         1 88P      -0.287600
      2 C5           3.0210    -0.0880    -0.0990 c          1 88P       0.618700
      3 C6           3.4140     1.3700    -0.2030 c6         1 88P      -0.175400
      4 C7          -0.6070     0.1020    -0.0540 cd         1 88P      -0.258600
      5 C8           0.9130    -1.5480    -0.0590 cd         1 88P      -0.047300
      6 C10         -4.2530     0.2410    -0.0210 c3         1 88P       0.171600
      7 C3           0.6270     0.7120    -0.0570 cc         1 88P      -0.007300
      8 C9          -1.9270     0.7020    -0.0580 c          1 88P       0.641700
      9 C2           1.0100     2.1530    -0.0530 c6         1 88P      -0.017100
     10 C1           2.4290     2.3110     0.4870 c6         1 88P      -0.066400
     11 C12          1.4250    -2.9400    -0.0590 c3         1 88P      -0.039800
     12 C11         -5.1460    -0.9700     0.0850 c3         1 88P      -0.099100
     13 N13         -0.3910    -1.2640    -0.0540 na         1 88P      -0.070000
     14 O14          3.8490    -0.9850    -0.0840 o          1 88P      -0.552100
     15 O16         -2.1290     1.8960    -0.1010 o          1 88P      -0.487000
     16 O15         -2.8900    -0.2120    -0.0120 os         1 88P      -0.469100
     17 H1           4.4230     1.4970     0.1930 hc         1 88P       0.066200
     18 H2           3.4650     1.6100    -1.2720 hc         1 88P       0.066200
     19 H3          -4.4490     0.7880    -0.9450 h1         1 88P       0.050700
     20 H4          -4.4190     0.9240     0.8150 h1         1 88P       0.050700
     21 H5           0.9600     2.5420    -1.0760 hc         1 88P       0.066200
     22 H6           0.3070     2.7450     0.5320 hc         1 88P       0.066200
     23 H7           2.4340     2.1150     1.5620 hc         1 88P       0.047200
     24 H8           2.7590     3.3420     0.3540 hc         1 88P       0.047200
     25 H9           1.9450    -3.1630     0.8730 hc         1 88P       0.061033
     26 H10          0.6150    -3.6570    -0.1770 hc         1 88P       0.061033
     27 H11          2.1390    -3.0910    -0.8680 hc         1 88P       0.061033
     28 H12         -6.1850    -0.6450     0.0770 hc         1 88P       0.047033
     29 H13         -5.0020    -1.6510    -0.7530 hc         1 88P       0.047033
     30 H14         -4.9740    -1.5170     1.0130 hc         1 88P       0.047033
     31 H15         -1.1230    -1.9590    -0.0510 hn         1 88P       0.362000
@<TRIPOS>BOND
     1     1     2 1   
     2     1     5 2   
     3     1     7 1   
     4     2     3 1   
     5     2    14 2   
     6     3    10 1   
     7     3    17 1   
     8     3    18 1   
     9     4     7 2   
    10     4     8 1   
    11     4    13 1   
    12     5    11 1   
    13     5    13 1   
    14     6    12 1   
    15     6    16 1   
    16     6    19 1   
    17     6    20 1   
    18     7     9 1   
    19     8    15 2   
    20     8    16 1   
    21     9    10 1   
    22     9    21 1   
    23     9    22 1   
    24    10    23 1   
    25    10    24 1   
    26    11    25 1   
    27    11    26 1   
    28    11    27 1   
    29    12    28 1   
    30    12    29 1   
    31    12    30 1   
    32    13    31 1   
@<TRIPOS>SUBSTRUCTURE
     1 88P         1 TEMP              0 ****  ****    0 ROOT
