@<TRIPOS>MOLECULE
88P
   31    32     1     0     0
SMALL
No Charge or Current Charge


@<TRIPOS>ATOM
      1 C4           1.6100    -0.3760    -0.0840 cc         1 88P      -0.287600
      2 C5           3.0670    -0.0940    -0.1160 c          1 88P       0.618700
      3 C6           3.4330     1.3950    -0.2230 c6         1 88P      -0.175400
      4 C7          -0.6140     0.0290    -0.0410 cd         1 88P      -0.258600
      5 C8           1.0050    -1.6070    -0.0500 cd         1 88P      -0.047300
      6 C10         -4.3200     0.3220    -0.0040 c3         1 88P       0.171600
      7 C3           0.6210     0.6300    -0.0650 cc         1 88P      -0.007300
      8 C9          -1.9400     0.6970    -0.0370 c          1 88P       0.641700
      9 C2           0.9770     2.1030    -0.0560 c6         1 88P      -0.017100
     10 C1           2.4120     2.3190     0.4880 c6         1 88P      -0.066400
     11 C12          1.6020    -2.9910    -0.0450 c3         1 88P      -0.039800
     12 C11         -5.2790    -0.8790     0.0370 c3         1 88P      -0.099100
     13 N13         -0.3720    -1.3550    -0.0270 na         1 88P      -0.070000
     14 O14          3.9330    -0.9560    -0.0390 o          1 88P      -0.552100
     15 O16         -2.1000     1.9090    -0.0720 o          1 88P      -0.487000
     16 O15         -2.9800    -0.1970    -0.0040 os         1 88P      -0.469100
     17 H1           4.4660     1.5550     0.1100 hc         1 88P       0.066200
     18 H2           3.3870     1.6400    -1.2920 hc         1 88P       0.066200
     19 H3          -4.5130     0.9130    -0.9090 h1         1 88P       0.050700
     20 H4          -4.4950     0.9590     0.8730 h1         1 88P       0.050700
     21 H5           0.8990     2.5150    -1.0720 hc         1 88P       0.066200
     22 H6           0.2780     2.6770     0.5650 hc         1 88P       0.066200
     23 H7           2.4290     2.1180     1.5690 hc         1 88P       0.047200
     24 H8           2.7030     3.3710     0.3620 hc         1 88P       0.047200
     25 H9           2.2250    -3.1460     0.8440 hc         1 88P       0.061033
     26 H10          0.8250    -3.7650    -0.0450 hc         1 88P       0.061033
     27 H11          2.2300    -3.1500    -0.9290 hc         1 88P       0.061033
     28 H12         -6.3190    -0.5340     0.0390 hc         1 88P       0.047033
     29 H13         -5.1310    -1.5210    -0.8390 hc         1 88P       0.047033
     30 H14         -5.1130    -1.4750     0.9420 hc         1 88P       0.047033
     31 H15         -1.0950    -2.0690    -0.0060 hn         1 88P       0.362000
@<TRIPOS>BOND
     1     1     2 1   
     2     1     5 2   
     3     1     7 1   
     4     2     3 1   
     5     2    14 2   
     6     3    10 1   
     7     3    17 1   
     8     3    18 1   
     9     4     7 2   
    10     4     8 1   
    11     4    13 1   
    12     5    11 1   
    13     5    13 1   
    14     6    12 1   
    15     6    16 1   
    16     6    19 1   
    17     6    20 1   
    18     7     9 1   
    19     8    15 2   
    20     8    16 1   
    21     9    10 1   
    22     9    21 1   
    23     9    22 1   
    24    10    23 1   
    25    10    24 1   
    26    11    25 1   
    27    11    26 1   
    28    11    27 1   
    29    12    28 1   
    30    12    29 1   
    31    12    30 1   
    32    13    31 1   
@<TRIPOS>SUBSTRUCTURE
     1 88P         1 TEMP              0 ****  ****    0 ROOT
