@<TRIPOS>MOLECULE
88Q
   40    41     1     0     0
SMALL
bcc


@<TRIPOS>ATOM
      1 O5          -3.6460     2.3480     0.0940 oh         1 88Q      -0.616300
      2 C11         -3.2210     1.3090    -0.7650 c3         1 88Q       0.108400
      3 C10         -3.3890    -0.0130    -0.0220 c6         1 88Q       0.130300
      4 C9          -3.0560    -1.1900    -0.9330 c6         1 88Q      -0.075400
      5 C8          -1.5580    -1.2900    -1.2120 c6         1 88Q      -0.104900
      6 O4          -4.7350    -0.1620     0.3880 oh         1 88Q      -0.599800
      7 C12         -2.4740    -0.0890     1.2080 c6         1 88Q       0.109400
      8 O6          -1.1140    -0.1040     0.8500 os         1 88Q      -0.389600
      9 C7          -0.7670    -1.2420     0.0900 c6         1 88Q       0.150100
     10 C5           0.7380    -1.2510    -0.1180 c6         1 88Q       0.150100
     11 O3           1.1000    -0.1130    -0.8710 os         1 88Q      -0.389600
     12 C6           2.4600    -0.1130    -1.2290 c6         1 88Q       0.109400
     13 C4           1.5280    -1.3180     1.1840 c6         1 88Q      -0.104900
     14 C3           3.0270    -1.2350     0.9060 c6         1 88Q      -0.075400
     15 C2           3.3760    -0.0560     0.0020 c6         1 88Q       0.130300
     16 O2           4.7190    -0.2170    -0.4080 oh         1 88Q      -0.599800
     17 C1           3.2220     1.2640     0.7540 c3         1 88Q       0.108400
     18 O1           3.6550     2.3040    -0.0990 oh         1 88Q      -0.616300
     19 H5          -3.7110     3.1600    -0.4160 ho         1 88Q       0.412000
     20 H111        -3.8290     1.2760    -1.6780 h1         1 88Q       0.040200
     21 H112        -2.1790     1.4490    -1.0720 h1         1 88Q       0.040200
     22 H91C        -3.3900    -2.1080    -0.4370 hc         1 88Q       0.055700
     23 H92C        -3.6170    -1.1190    -1.8690 hc         1 88Q       0.055700
     24 H4          -5.0230     0.6770     0.7650 ho         1 88Q       0.422000
     25 H121        -2.6220     0.7710     1.8660 h1         1 88Q       0.057200
     26 H122        -2.7380    -0.9910     1.7810 h1         1 88Q       0.057200
     27 H81C        -1.3440    -2.2300    -1.7250 hc         1 88Q       0.057200
     28 H82C        -1.2350    -0.4880    -1.8790 hc         1 88Q       0.057200
     29 H7          -1.0090    -2.1530     0.6630 h1         1 88Q       0.033700
     30 HA           0.9670    -2.1620    -0.6980 h1         1 88Q       0.033700
     31 H41C         1.2150    -0.5170     1.8560 hc         1 88Q       0.057200
     32 H42C         1.3030    -2.2590     1.6900 hc         1 88Q       0.057200
     33 H61C         2.7120    -1.0160    -1.8070 h1         1 88Q       0.057200
     34 H62C         2.6190     0.7480    -1.8820 h1         1 88Q       0.057200
     35 H31C         3.5890    -1.1750     1.8420 hc         1 88Q       0.055700
     36 H32C         3.3520    -2.1530     0.4040 hc         1 88Q       0.055700
     37 H2           5.0160     0.6220    -0.7800 ho         1 88Q       0.422000
     38 H11C         2.1820     1.4120     1.0640 h1         1 88Q       0.040200
     39 H12C         3.8320     1.2180     1.6660 h1         1 88Q       0.040200
     40 H1           3.7530     3.1060     0.4210 ho         1 88Q       0.412000
@<TRIPOS>BOND
     1     1     2 1   
     2     1    19 1   
     3     2     3 1   
     4     2    20 1   
     5     2    21 1   
     6     3     4 1   
     7     3     6 1   
     8     3     7 1   
     9     4     5 1   
    10     4    22 1   
    11     4    23 1   
    12     5     9 1   
    13     5    27 1   
    14     5    28 1   
    15     6    24 1   
    16     7     8 1   
    17     7    25 1   
    18     7    26 1   
    19     8     9 1   
    20     9    10 1   
    21     9    29 1   
    22    10    11 1   
    23    10    13 1   
    24    10    30 1   
    25    11    12 1   
    26    12    15 1   
    27    12    33 1   
    28    12    34 1   
    29    13    14 1   
    30    13    31 1   
    31    13    32 1   
    32    14    15 1   
    33    14    35 1   
    34    14    36 1   
    35    15    16 1   
    36    15    17 1   
    37    16    37 1   
    38    17    18 1   
    39    17    38 1   
    40    17    39 1   
    41    18    40 1   
@<TRIPOS>SUBSTRUCTURE
     1 88Q         1 TEMP              0 ****  ****    0 ROOT
