@<TRIPOS>MOLECULE
88Q
   40    41     1     0     0
SMALL
No Charge or Current Charge


@<TRIPOS>ATOM
      1 O5          -4.0520     2.3600     0.0600 oh         1 88Q      -0.678500
      2 C11         -3.3690     1.3310    -0.6860 c3         1 88Q       0.131600
      3 C10         -3.5020    -0.0610     0.0210 c6         1 88Q       0.153500
      4 C9          -3.1220    -1.2340    -0.9290 c6         1 88Q      -0.075400
      5 C8          -1.5970    -1.2700    -1.2150 c6         1 88Q      -0.104900
      6 O4          -4.8810    -0.1750     0.3940 oh         1 88Q      -0.722000
      7 C12         -2.5920    -0.1350     1.2890 c6         1 88Q       0.132600
      8 O6          -1.1910    -0.1290     0.9210 os         1 88Q      -0.436000
      9 C7          -0.7860    -1.2620     0.1120 c6         1 88Q       0.173300
     10 C5           0.7570    -1.2710    -0.1400 c6         1 88Q       0.173300
     11 O3           1.1760    -0.1370    -0.9410 os         1 88Q      -0.436000
     12 C6           2.5770    -0.1590    -1.3100 c6         1 88Q       0.132600
     13 C4           1.5670    -1.2990     1.1870 c6         1 88Q      -0.104900
     14 C3           3.0930    -1.2800     0.9000 c6         1 88Q      -0.075400
     15 C2           3.4880    -0.1050    -0.0410 c6         1 88Q       0.153500
     16 O2           4.8650    -0.2350    -0.4150 oh         1 88Q      -0.722000
     17 C1           3.3730     1.2830     0.6750 c3         1 88Q       0.131600
     18 O1           4.0690     2.3080    -0.0630 oh         1 88Q      -0.678500
     19 H5          -3.8470     3.2190    -0.3770 ho         1 88Q       0.451000
     20 H111        -3.7940     1.2560    -1.6970 h1         1 88Q       0.040200
     21 H112        -2.3050     1.5790    -0.7970 h1         1 88Q       0.040200
     22 H91C        -3.4220    -2.1870    -0.4700 hc         1 88Q       0.055700
     23 H92C        -3.6800    -1.1610    -1.8720 hc         1 88Q       0.055700
     24 H4          -5.1530     0.7730     0.4880 ho         1 88Q       0.521000
     25 H121        -2.7870     0.7250     1.9460 h1         1 88Q       0.057200
     26 H122        -2.8090    -1.0500     1.8590 h1         1 88Q       0.057200
     27 H81C        -1.3510    -2.1690    -1.7970 hc         1 88Q       0.057200
     28 H82C        -1.3130    -0.4110    -1.8370 hc         1 88Q       0.057200
     29 H7          -1.0340    -2.1760     0.6710 h1         1 88Q       0.033700
     30 HA           0.9930    -2.1850    -0.7050 h1         1 88Q       0.033700
     31 H41C         1.2940    -0.4400     1.8150 hc         1 88Q       0.057200
     32 H42C         1.3100    -2.1980     1.7620 hc         1 88Q       0.057200
     33 H61C         2.7820    -1.0730    -1.8860 h1         1 88Q       0.057200
     34 H62C         2.7830     0.7030    -1.9610 h1         1 88Q       0.057200
     35 H31C         3.6520    -1.2210     1.8450 hc         1 88Q       0.055700
     36 H32C         3.3810    -2.2330     0.4350 hc         1 88Q       0.055700
     37 H2           5.1490     0.7110    -0.5020 ho         1 88Q       0.521000
     38 H11C         2.3120     1.5440     0.7890 h1         1 88Q       0.040200
     39 H12C         3.7970     1.1960     1.6860 h1         1 88Q       0.040200
     40 H1           3.8760     3.1670     0.3800 ho         1 88Q       0.451000
@<TRIPOS>BOND
     1     1     2 1   
     2     1    19 1   
     3     2     3 1   
     4     2    20 1   
     5     2    21 1   
     6     3     4 1   
     7     3     6 1   
     8     3     7 1   
     9     4     5 1   
    10     4    22 1   
    11     4    23 1   
    12     5     9 1   
    13     5    27 1   
    14     5    28 1   
    15     6    24 1   
    16     7     8 1   
    17     7    25 1   
    18     7    26 1   
    19     8     9 1   
    20     9    10 1   
    21     9    29 1   
    22    10    11 1   
    23    10    13 1   
    24    10    30 1   
    25    11    12 1   
    26    12    15 1   
    27    12    33 1   
    28    12    34 1   
    29    13    14 1   
    30    13    31 1   
    31    13    32 1   
    32    14    15 1   
    33    14    35 1   
    34    14    36 1   
    35    15    16 1   
    36    15    17 1   
    37    16    37 1   
    38    17    18 1   
    39    17    38 1   
    40    17    39 1   
    41    18    40 1   
@<TRIPOS>SUBSTRUCTURE
     1 88Q         1 TEMP              0 ****  ****    0 ROOT
