@<TRIPOS>MOLECULE
88R
   30    30     1     0     0
SMALL
bcc


@<TRIPOS>ATOM
      1 C1          -4.6390     1.8590     0.0040 c3         1 88R       0.135700
      2 O2          -4.0640     0.5790     0.1470 os         1 88R      -0.320900
      3 C3          -2.7610     0.4300    -0.1800 ca         1 88R       0.049100
      4 C4          -1.9410     1.4320    -0.6710 ca         1 88R      -0.185000
      5 C5          -0.6050     1.1700    -0.9770 ca         1 88R      -0.109000
      6 C6          -0.0670    -0.0930    -0.8040 ca         1 88R       0.000700
      7 C7          -0.9010    -1.1030    -0.3110 ca         1 88R      -0.188000
      8 C8          -2.2280    -0.8610     0.0010 ca         1 88R       0.084100
      9 O9          -3.0900    -1.7850     0.4750 os         1 88R      -0.325900
     10 C10         -2.6130    -3.0970     0.6810 c3         1 88R       0.132700
     11 C11          1.3780    -0.3900    -1.0950 c3         1 88R      -0.002100
     12 C12          2.2630    -0.2720     0.1450 c3         1 88R      -0.305700
     13 C13          3.7270    -0.6910    -0.1060 c          1 88R       0.951100
     14 O14          4.0560    -1.0450    -1.2560 o          1 88R      -0.875050
     15 O15          4.4840    -0.6360     0.8860 o          1 88R      -0.875050
     16 C16          2.2760     1.1680     0.6910 c          1 88R       0.951100
     17 O17          2.6260     2.0540    -0.1200 o          1 88R      -0.875050
     18 O18          1.9600     1.3520     1.8830 o          1 88R      -0.875050
     19 H11C        -5.6720     1.7740     0.3310 h1         1 88R       0.019367
     20 H12C        -4.1350     2.6070     0.6230 h1         1 88R       0.019367
     21 H13C        -4.6270     2.2010    -1.0350 h1         1 88R       0.019367
     22 H4          -2.3250     2.4320    -0.8250 ha         1 88R       0.110000
     23 H5           0.0170     1.9740    -1.3490 ha         1 88R       0.160000
     24 H7          -0.4850    -2.0940    -0.1780 ha         1 88R       0.131000
     25 H111         1.4620    -1.4000    -1.5020 hc         1 88R       0.040200
     26 H112         1.7480     0.2860    -1.8670 hc         1 88R       0.040200
     27 H101        -3.4460    -3.6710     1.0800 h1         1 88R       0.025033
     28 H102        -2.2800    -3.5640    -0.2500 h1         1 88R       0.025033
     29 H103        -1.7900    -3.1270     1.4000 h1         1 88R       0.025033
     30 H12          1.8610    -0.9340     0.9220 hc         1 88R       0.017700
@<TRIPOS>BOND
     1     1     2 1   
     2     1    19 1   
     3     1    20 1   
     4     1    21 1   
     5     2     3 1   
     6     3     4 ar  
     7     3     8 ar  
     8     4     5 ar  
     9     4    22 1   
    10     5     6 ar  
    11     5    23 1   
    12     6     7 ar  
    13     6    11 1   
    14     7     8 ar  
    15     7    24 1   
    16     8     9 1   
    17     9    10 1   
    18    10    27 1   
    19    10    28 1   
    20    10    29 1   
    21    11    12 1   
    22    11    25 1   
    23    11    26 1   
    24    12    13 1   
    25    12    16 1   
    26    12    30 1   
    27    13    14 1   
    28    13    15 1   
    29    16    17 1   
    30    16    18 1   
@<TRIPOS>SUBSTRUCTURE
     1 88R         1 TEMP              0 ****  ****    0 ROOT
