@<TRIPOS>MOLECULE
88R
   30    30     1     0     0
SMALL
No Charge or Current Charge


@<TRIPOS>ATOM
      1 C1          -4.7820     1.9080    -0.0980 c3         1 88R       0.158900
      2 O2          -4.1310     0.6430     0.1120 os         1 88R      -0.344100
      3 C3          -2.7950     0.4340    -0.1940 ca         1 88R       0.049100
      4 C4          -1.9870     1.4600    -0.7340 ca         1 88R      -0.167000
      5 C5          -0.6370     1.2130    -1.0320 ca         1 88R      -0.091000
      6 C6          -0.0740    -0.0540    -0.7990 ca         1 88R       0.000700
      7 C7          -0.8730    -1.0800    -0.2610 ca         1 88R      -0.170000
      8 C8          -2.2340    -0.8440     0.0450 ca         1 88R       0.084100
      9 O9          -3.0430    -1.8360     0.5760 os         1 88R      -0.349100
     10 C10         -2.5600    -3.1620     0.8540 c3         1 88R       0.155900
     11 C11          1.3920    -0.3190    -1.1290 c3         1 88R      -0.002100
     12 C12          2.3090    -0.2730     0.1220 c3         1 88R      -0.305700
     13 C13          3.7280    -0.7420    -0.1660 c          1 88R       0.740500
     14 O14          4.3500    -0.2500    -1.0950 o          1 88R      -0.769750
     15 O15          4.1650    -1.6670     0.5020 o          1 88R      -0.769750
     16 C16          2.4090     1.1100     0.7520 c          1 88R       0.740500
     17 O17          2.7090     2.0710     0.0590 o          1 88R      -0.769750
     18 O18          2.1260     1.2160     1.9360 o          1 88R      -0.769750
     19 H11C        -5.8330     1.8490     0.2120 h1         1 88R       0.019367
     20 H12C        -4.2970     2.6980     0.4910 h1         1 88R       0.019367
     21 H13C        -4.7540     2.1900    -1.1580 h1         1 88R       0.019367
     22 H4          -2.3850     2.4520    -0.9280 ha         1 88R       0.092000
     23 H5          -0.0230     2.0110    -1.4450 ha         1 88R       0.142000
     24 H7          -0.4200    -2.0500    -0.0860 ha         1 88R       0.113000
     25 H111         1.4820    -1.3100    -1.5920 hc         1 88R       0.040200
     26 H112         1.7500     0.3940    -1.8820 hc         1 88R       0.040200
     27 H101        -3.3650    -3.7800     1.2690 h1         1 88R       0.025033
     28 H102        -2.1970    -3.6450    -0.0620 h1         1 88R       0.025033
     29 H103        -1.7420    -3.1330     1.5860 h1         1 88R       0.025033
     30 H12          1.9020    -0.9470     0.8880 hc         1 88R       0.017700
@<TRIPOS>BOND
     1     1     2 1   
     2     1    19 1   
     3     1    20 1   
     4     1    21 1   
     5     2     3 1   
     6     3     4 ar  
     7     3     8 ar  
     8     4     5 ar  
     9     4    22 1   
    10     5     6 ar  
    11     5    23 1   
    12     6     7 ar  
    13     6    11 1   
    14     7     8 ar  
    15     7    24 1   
    16     8     9 1   
    17     9    10 1   
    18    10    27 1   
    19    10    28 1   
    20    10    29 1   
    21    11    12 1   
    22    11    25 1   
    23    11    26 1   
    24    12    13 1   
    25    12    16 1   
    26    12    30 1   
    27    13    14 1   
    28    13    15 1   
    29    16    17 1   
    30    16    18 1   
@<TRIPOS>SUBSTRUCTURE
     1 88R         1 TEMP              0 ****  ****    0 ROOT
