@<TRIPOS>MOLECULE
88S
   33    34     1     0     0
SMALL
abcg2


@<TRIPOS>ATOM
      1 C5           2.9720     2.0780    -0.2940 ca         1 88S      -0.025000
      2 C6           1.5970     2.0970    -0.2270 ca         1 88S      -0.168000
      3 C8           1.4970    -0.3100     0.0430 ca         1 88S      -0.099000
      4 C4           3.6410     0.8590    -0.1940 ca         1 88S       0.066400
      5 C7           0.8480     0.9160    -0.0590 ca         1 88S      -0.012000
      6 C9           2.8850    -0.3090    -0.0270 ca         1 88S      -0.153000
      7 C2           5.3180    -0.5630    -0.1200 cc         1 88S       0.399200
      8 C12         -1.5120     0.1290     0.0870 c          1 88S       0.610100
      9 C17         -6.4260    -0.4250    -0.0060 c          1 88S       0.632100
     10 C1           6.7050    -1.0960    -0.1230 c3         1 88S      -0.117400
     11 C14         -2.9070     0.7140     0.1140 c3         1 88S      -0.181400
     12 C15         -3.9890    -0.3500     0.1500 c3         1 88S       0.122000
     13 N3           5.0030     0.6760    -0.2430 nd         1 88S      -0.530100
     14 N19         -7.5780     0.2650     0.2320 nt         1 88S      -0.596000
     15 N11         -0.5390     1.0730    -0.0040 ns         1 88S      -0.149000
     16 N16         -5.2840     0.2940     0.1600 ns         1 88S      -0.523900
     17 O13         -1.2950    -1.0670     0.1430 o          1 88S      -0.567100
     18 O18         -6.4200    -1.6090    -0.3270 o          1 88S      -0.629100
     19 S10          3.9620    -1.6600     0.0700 ss         1 88S       0.015800
     20 H5           3.5280     2.9970    -0.4270 ha         1 88S       0.132000
     21 H6           1.0770     3.0440    -0.3070 ha         1 88S       0.112000
     22 H8           0.9520    -1.2300     0.1760 ha         1 88S       0.160000
     23 H11         -0.8580     2.0300    -0.0550 hn         1 88S       0.149000
     24 H11C         6.9380    -1.5800     0.8260 hc         1 88S       0.060700
     25 H12C         6.8410    -1.8370    -0.9110 hc         1 88S       0.060700
     26 H13C         7.4100    -0.2830    -0.2810 hc         1 88S       0.060700
     27 H141        -2.9890     1.3680     0.9890 hc         1 88S       0.062700
     28 H142        -3.0410     1.3590    -0.7590 hc         1 88S       0.062700
     29 H191        -7.5740     1.2710     0.2030 hn         1 88S       0.302000
     30 H192        -8.4290    -0.1600    -0.0980 hn         1 88S       0.302000
     31 H16         -5.3490     1.1770     0.6420 hn         1 88S       0.297500
     32 H151        -3.9140    -0.9860    -0.7320 h1         1 88S       0.070700
     33 H152        -3.8550    -0.9950     1.0230 h1         1 88S       0.070700
@<TRIPOS>BOND
     1     1     2 ar  
     2     1     4 ar  
     3     1    20 1   
     4     2     5 ar  
     5     2    21 1   
     6     3     5 ar  
     7     3     6 ar  
     8     3    22 1   
     9     4     6 ar  
    10     4    13 1   
    11     5    15 1   
    12     6    19 1   
    13     7    10 1   
    14     7    13 2   
    15     7    19 1   
    16     8    11 1   
    17     8    15 1   
    18     8    17 2   
    19     9    14 1   
    20     9    16 1   
    21     9    18 2   
    22    10    24 1   
    23    10    25 1   
    24    10    26 1   
    25    11    12 1   
    26    11    27 1   
    27    11    28 1   
    28    12    16 1   
    29    12    32 1   
    30    12    33 1   
    31    14    29 1   
    32    14    30 1   
    33    15    23 1   
    34    16    31 1   
@<TRIPOS>SUBSTRUCTURE
     1 88S         1 TEMP              0 ****  ****    0 ROOT
