@<TRIPOS>MOLECULE
88S
   33    34     1     0     0
SMALL
No Charge or Current Charge


@<TRIPOS>ATOM
      1 C5           2.8210     1.9990    -0.5320 ca         1 88S      -0.025000
      2 C6           1.4230     1.9810    -0.3520 ca         1 88S      -0.168000
      3 C8           1.5230    -0.3680     0.2890 ca         1 88S      -0.099000
      4 C4           3.5620     0.8300    -0.2990 ca         1 88S       0.066400
      5 C7           0.7600     0.8030     0.0610 ca         1 88S      -0.012000
      6 C9           2.9140    -0.3200     0.1010 ca         1 88S      -0.153000
      7 C2           5.2950    -0.5130    -0.1430 cc         1 88S       0.399200
      8 C12         -1.5880    -0.0690     0.6410 c          1 88S       0.610100
      9 C17         -6.2210    -0.1340     0.3120 c          1 88S       0.632100
     10 C1           6.7220    -0.9750    -0.2000 c3         1 88S      -0.117400
     11 C14         -3.0290     0.4440     0.6550 c3         1 88S      -0.181400
     12 C15         -3.8450    -0.1980    -0.4820 c3         1 88S       0.122000
     13 N3           4.9410     0.7430    -0.4490 nd         1 88S      -0.530100
     14 N19         -7.3890     0.4880     0.1040 nt         1 88S      -0.596000
     15 N11         -0.6520     0.8660     0.2180 ns         1 88S      -0.149000
     16 N16         -5.2220     0.3010    -0.5120 ns         1 88S      -0.523900
     17 O13         -1.3140    -1.2050     1.0090 o          1 88S      -0.567100
     18 O18         -6.0920    -1.0000     1.1550 o          1 88S      -0.629100
     19 S10          4.0220    -1.6610     0.3330 ss         1 88S       0.015800
     20 H5           3.3230     2.9100    -0.8490 ha         1 88S       0.132000
     21 H6           0.8540     2.8890    -0.5340 ha         1 88S       0.112000
     22 H8           1.0660    -1.3020     0.6020 ha         1 88S       0.160000
     23 H11         -1.0480     1.7630    -0.0310 hn         1 88S       0.149000
     24 H11C         6.9460    -1.6480     0.6350 hc         1 88S       0.060700
     25 H12C         6.9140    -1.5130    -1.1350 hc         1 88S       0.060700
     26 H13C         7.4150    -0.1270    -0.1450 hc         1 88S       0.060700
     27 H141        -3.4900     0.1740     1.6120 hc         1 88S       0.062700
     28 H142        -3.0470     1.5330     0.5260 hc         1 88S       0.062700
     29 H191        -7.4690     1.2030    -0.6030 hn         1 88S       0.302000
     30 H192        -8.1870     0.2330     0.6650 hn         1 88S       0.302000
     31 H16         -5.4580     1.0250    -1.1780 hn         1 88S       0.297500
     32 H151        -3.3720     0.0250    -1.4490 h1         1 88S       0.070700
     33 H152        -3.8600    -1.2910    -0.3600 h1         1 88S       0.070700
@<TRIPOS>BOND
     1     1     2 ar  
     2     1     4 ar  
     3     1    20 1   
     4     2     5 ar  
     5     2    21 1   
     6     3     5 ar  
     7     3     6 ar  
     8     3    22 1   
     9     4     6 ar  
    10     4    13 1   
    11     5    15 1   
    12     6    19 1   
    13     7    10 1   
    14     7    13 2   
    15     7    19 1   
    16     8    11 1   
    17     8    15 1   
    18     8    17 2   
    19     9    14 1   
    20     9    16 1   
    21     9    18 2   
    22    10    24 1   
    23    10    25 1   
    24    10    26 1   
    25    11    12 1   
    26    11    27 1   
    27    11    28 1   
    28    12    16 1   
    29    12    32 1   
    30    12    33 1   
    31    14    29 1   
    32    14    30 1   
    33    15    23 1   
    34    16    31 1   
@<TRIPOS>SUBSTRUCTURE
     1 88S         1 TEMP              0 ****  ****    0 ROOT
