@<TRIPOS>MOLECULE
88U
   38    40     1     0     0
SMALL
abcg2


@<TRIPOS>ATOM
      1 C21         -2.6190     0.0040     1.3380 ca         1 88U      -0.163000
      2 C15          3.2340     1.7960     0.9350 ca         1 88U      -0.104000
      3 C14          2.8140     0.5460     0.4330 ca         1 88U       0.046000
      4 N13          3.7030    -0.4820     0.4570 nb         1 88U      -0.207000
      5 C11          3.3140    -1.6030    -0.0820 ca         1 88U       0.181300
      6 C08         -0.2190    -2.5450    -1.6770 c3         1 88U       0.220100
      7 C06         -1.2410    -0.6540    -0.5250 ca         1 88U       0.229000
      8 C09          1.1760    -0.9110    -0.5630 ca         1 88U       0.402900
      9 C05         -2.2050    -0.1650    -1.3930 ca         1 88U      -0.080500
     10 C04         -3.3750     0.4080    -0.9110 ca         1 88U      -0.163000
     11 C03         -3.5840     0.5060     0.4630 ca         1 88U       0.139100
     12 C01         -5.6840     1.5710     0.1840 c3         1 88U       0.147900
     13 O02         -4.6730     1.0580     1.0280 os         1 88U      -0.338100
     14 N07         -0.0560    -1.2480    -1.0340 nh         1 88U      -0.799100
     15 N10          2.0890    -1.8580    -0.5800 nb         1 88U      -0.290000
     16 C16          2.4150     2.8900     0.8510 ca         1 88U      -0.082000
     17 C17          1.1500     2.7800     0.2520 ca         1 88U      -0.133000
     18 C18          0.7070     1.5680    -0.2160 ca         1 88U      -0.060000
     19 C19          1.5140     0.4170    -0.1070 ca         1 88U      -0.159000
     20 C20         -1.4680    -0.5810     0.8470 ca         1 88U      -0.080500
     21 H1          -2.7840     0.0660     2.4070 ha         1 88U       0.127000
     22 H2           4.2240     1.8680     1.3670 ha         1 88U       0.132000
     23 H3           3.8960    -3.6040     0.4030 hc         1 88U       0.056367
     24 H4           4.4280    -3.0600    -1.1770 hc         1 88U       0.056367
     25 H5           5.2440    -2.4620     0.2780 hc         1 88U       0.056367
     26 H6          -0.1860    -3.3680    -0.9600 h1         1 88U       0.045367
     27 H7          -1.1830    -2.5590    -2.1780 h1         1 88U       0.045367
     28 H8           0.5590    -2.7040    -2.4200 h1         1 88U       0.045367
     29 H9          -2.0420    -0.2140    -2.4620 ha         1 88U       0.126000
     30 H10         -4.1010     0.7820    -1.6210 ha         1 88U       0.127000
     31 H11         -6.4600     1.9660     0.8350 h1         1 88U       0.042367
     32 H12         -5.3140     2.3800    -0.4520 h1         1 88U       0.042367
     33 H13         -6.1190     0.7950    -0.4510 h1         1 88U       0.042367
     34 H14          2.7490     3.8480     1.2300 ha         1 88U       0.115000
     35 H15          0.5200     3.6540     0.1540 ha         1 88U       0.115000
     36 H16         -0.2650     1.5210    -0.6800 ha         1 88U       0.123000
     37 H17         -0.7340    -0.9730     1.5400 ha         1 88U       0.126000
     38 C12          4.2820    -2.7420    -0.1430 c3         1 88U      -0.133400
@<TRIPOS>BOND
     1     1    11 ar  
     2     1    20 ar  
     3     1    21 1   
     4     2     3 ar  
     5     2    16 ar  
     6     2    22 1   
     7     3     4 ar  
     8     3    19 ar  
     9     4     5 ar  
    10     5    15 ar  
    11     5    38 1   
    12     6    14 1   
    13     6    26 1   
    14     6    27 1   
    15     6    28 1   
    16     7     9 ar  
    17     7    14 1   
    18     7    20 ar  
    19     8    14 1   
    20     8    15 ar  
    21     8    19 ar  
    22     9    10 ar  
    23     9    29 1   
    24    10    11 ar  
    25    10    30 1   
    26    11    13 1   
    27    12    13 1   
    28    12    31 1   
    29    12    32 1   
    30    12    33 1   
    31    16    17 ar  
    32    16    34 1   
    33    17    18 ar  
    34    17    35 1   
    35    18    19 ar  
    36    18    36 1   
    37    20    37 1   
    38    23    38 1   
    39    24    38 1   
    40    25    38 1   
@<TRIPOS>SUBSTRUCTURE
     1 88U         1 TEMP              0 ****  ****    0 ROOT
