@<TRIPOS>MOLECULE
88U
   38    40     1     0     0
SMALL
No Charge or Current Charge


@<TRIPOS>ATOM
      1 C21         -2.5180     0.1370     1.3740 ca         1 88U      -0.163000
      2 C15          3.5560     1.7270     0.8170 ca         1 88U      -0.104000
      3 C14          2.9910     0.4890     0.4570 ca         1 88U       0.046000
      4 N13          3.6230    -0.6620     0.7620 nb         1 88U      -0.207000
      5 C11          3.0370    -1.8160     0.3840 ca         1 88U       0.181300
      6 C08         -0.0670    -1.7220    -2.4980 c3         1 88U       0.220100
      7 C06         -1.2480    -0.5270    -0.6180 ca         1 88U       0.229000
      8 C09          1.2150    -0.7990    -0.5710 ca         1 88U       0.402900
      9 C05         -2.4090    -0.3000    -1.3920 ca         1 88U      -0.080500
     10 C04         -3.6060     0.1410    -0.7950 ca         1 88U      -0.163000
     11 C03         -3.6620     0.3610     0.5960 ca         1 88U       0.139100
     12 C01         -6.0310     1.0510     0.5300 c3         1 88U       0.147900
     13 O02         -4.8050     0.7920     1.2380 os         1 88U      -0.338100
     14 N07         -0.0330    -0.9670    -1.2190 nh         1 88U      -0.799100
     15 N10          1.8630    -1.9380    -0.2630 nb         1 88U      -0.290000
     16 C16          2.9110     2.9320     0.4950 ca         1 88U      -0.082000
     17 C17          1.6920     2.9100    -0.1990 ca         1 88U      -0.133000
     18 C18          1.1130     1.6840    -0.5650 ca         1 88U      -0.060000
     19 C19          1.7530     0.4680    -0.2320 ca         1 88U      -0.159000
     20 C20         -1.3230    -0.3020     0.7750 ca         1 88U      -0.080500
     21 H1          -2.5550     0.3030     2.4470 ha         1 88U       0.127000
     22 H2           4.5050     1.7530     1.3490 ha         1 88U       0.132000
     23 H3           3.4150    -3.4870     1.7070 hc         1 88U       0.056367
     24 H4           3.5840    -3.8810    -0.0120 hc         1 88U       0.056367
     25 H5           4.8430    -2.9500     0.8070 hc         1 88U       0.056367
     26 H6           0.9050    -2.1870    -2.7130 h1         1 88U       0.045367
     27 H7          -0.8130    -2.5270    -2.4520 h1         1 88U       0.045367
     28 H8          -0.3060    -1.0540    -3.3360 h1         1 88U       0.045367
     29 H9          -2.3910    -0.4500    -2.4670 ha         1 88U       0.126000
     30 H10         -4.4720     0.3060    -1.4290 ha         1 88U       0.127000
     31 H11         -6.8100     1.3830     1.2280 h1         1 88U       0.042367
     32 H12         -5.8900     1.8390    -0.2200 h1         1 88U       0.042367
     33 H13         -6.3900     0.1440     0.0270 h1         1 88U       0.042367
     34 H14          3.3590     3.8820     0.7780 ha         1 88U       0.115000
     35 H15          1.1950     3.8430    -0.4560 ha         1 88U       0.115000
     36 H16          0.1740     1.6900    -1.1130 ha         1 88U       0.123000
     37 H17         -0.4560    -0.4750     1.4070 ha         1 88U       0.126000
     38 C12          3.7600    -3.1030     0.7400 c3         1 88U      -0.133400
@<TRIPOS>BOND
     1     1    11 ar  
     2     1    20 ar  
     3     1    21 1   
     4     2     3 ar  
     5     2    16 ar  
     6     2    22 1   
     7     3     4 ar  
     8     3    19 ar  
     9     4     5 ar  
    10     5    15 ar  
    11     5    38 1   
    12     6    14 1   
    13     6    26 1   
    14     6    27 1   
    15     6    28 1   
    16     7     9 ar  
    17     7    14 1   
    18     7    20 ar  
    19     8    14 1   
    20     8    15 ar  
    21     8    19 ar  
    22     9    10 ar  
    23     9    29 1   
    24    10    11 ar  
    25    10    30 1   
    26    11    13 1   
    27    12    13 1   
    28    12    31 1   
    29    12    32 1   
    30    12    33 1   
    31    16    17 ar  
    32    16    34 1   
    33    17    18 ar  
    34    17    35 1   
    35    18    19 ar  
    36    18    36 1   
    37    20    37 1   
    38    23    38 1   
    39    24    38 1   
    40    25    38 1   
@<TRIPOS>SUBSTRUCTURE
     1 88U         1 TEMP              0 ****  ****    0 ROOT
