@<TRIPOS>MOLECULE
88V
   59    61     1     0     0
SMALL
bcc


@<TRIPOS>ATOM
      1 C23         -5.5750    -0.3170    -1.0250 ca         1 88V      -0.131500
      2 C27         -5.5100    -0.5870     1.3450 ca         1 88V      -0.131500
      3 C24         -6.8450     0.2350    -0.9270 ca         1 88V      -0.126500
      4 C26         -6.7770    -0.0320     1.4400 ca         1 88V      -0.126500
      5 C5           9.5260    -1.7830     0.5650 ca         1 88V      -0.045000
      6 C6           8.1560    -1.9100     0.5190 ca         1 88V      -0.187000
      7 C8           7.8810     0.4090    -0.1260 ca         1 88V      -0.120000
      8 C22         -4.8870    -0.7420     0.1090 ca         1 88V      -0.150300
      9 C25         -7.4720     0.3890     0.3080 ca         1 88V       0.006700
     10 C4          10.1040    -0.5500     0.2660 ca         1 88V       0.058400
     11 C7           7.3220    -0.8280     0.1770 ca         1 88V       0.090600
     12 C9           9.2650     0.5190    -0.0730 ca         1 88V      -0.021100
     13 C2          11.6720     0.9630    -0.0380 cc         1 88V       0.390200
     14 C12          4.9230    -0.2940    -0.2260 c          1 88V       0.676100
     15 C30        -11.3580     0.3940     0.6620 c          1 88V       0.951600
     16 C33         -9.9310    -0.9510    -0.8720 c          1 88V       0.951600
     17 C17         -0.0130    -0.0510    -0.2630 c          1 88V       0.772100
     18 C1          13.0160     1.5930    -0.1130 c3         1 88V      -0.114400
     19 C21         -3.4980    -1.3070     0.0090 c3         1 88V      -0.022100
     20 C28         -8.8620     0.9500     0.4230 c3         1 88V      -0.005100
     21 C14          3.5710    -0.9650    -0.1310 c3         1 88V      -0.178400
     22 C20         -2.4420    -0.2060     0.0550 c3         1 88V       0.098000
     23 C15          2.4280     0.0360    -0.1210 c3         1 88V       0.125000
     24 C29         -9.9290    -0.1440     0.4390 c3         1 88V      -0.305700
     25 N3          11.4500    -0.2640     0.2730 nd         1 88V      -0.531100
     26 N11          5.9490    -1.0850     0.1840 ns         1 88V      -0.478100
     27 N19         -1.1160    -0.7830     0.0510 ns         1 88V      -0.572900
     28 N16          1.1730    -0.6750    -0.0190 ns         1 88V      -0.598900
     29 O13          5.0660     0.8380    -0.6500 o          1 88V      -0.566100
     30 O31        -11.5140     1.6190     0.8380 o          1 88V      -0.874300
     31 O34        -10.0710    -0.2840    -1.9210 o          1 88V      -0.874300
     32 O18         -0.0780     1.0650    -0.7680 o          1 88V      -0.635100
     33 O32        -12.2650    -0.4660     0.6510 o          1 88V      -0.874300
     34 O35         -9.8110    -2.1910    -0.8030 o          1 88V      -0.874300
     35 S10         10.2400     1.9150    -0.3840 ss         1 88V      -0.115100
     36 H23         -5.1160    -0.4270    -2.0010 ha         1 88V       0.096000
     37 H24         -7.3640     0.5420    -1.8260 ha         1 88V       0.142000
     38 H27         -4.9980    -0.9070     2.2460 ha         1 88V       0.096000
     39 H26         -7.2370     0.0780     2.4170 ha         1 88V       0.142000
     40 H8           7.2720     1.2590    -0.3860 ha         1 88V       0.181000
     41 H211        -3.3290    -2.0080     0.8320 hc         1 88V       0.032700
     42 H212        -3.3840    -1.8750    -0.9180 hc         1 88V       0.032700
     43 H281        -8.9360     1.5400     1.3390 hc         1 88V       0.041200
     44 H282        -9.0550     1.6330    -0.4050 hc         1 88V       0.041200
     45 H11          5.6930    -2.0040     0.5120 hn         1 88V       0.317500
     46 H11C        13.1890     2.0340    -1.0950 hc         1 88V       0.057367
     47 H12C        13.1150     2.3900     0.6250 hc         1 88V       0.057367
     48 H13C        13.7830     0.8460     0.0750 hc         1 88V       0.057367
     49 H141         3.4660    -1.6410    -0.9860 hc         1 88V       0.063200
     50 H142         3.5330    -1.5950     0.7620 hc         1 88V       0.063200
     51 H29         -9.7100    -0.8300     1.2670 hc         1 88V       0.018700
     52 H19         -0.9910    -1.6020     0.6250 hn         1 88V       0.288500
     53 H16          1.1640    -1.4860     0.5820 hn         1 88V       0.289500
     54 H201        -2.5520     0.4420    -0.8140 h1         1 88V       0.057200
     55 H202        -2.6030     0.4180     0.9420 h1         1 88V       0.057200
     56 H151         2.5580     0.7420     0.7070 h1         1 88V       0.065200
     57 H152         2.4340     0.6160    -1.0420 h1         1 88V       0.065200
     58 H5          10.1470    -2.6270     0.8320 ha         1 88V       0.147000
     59 H6           7.7080    -2.8680     0.7530 ha         1 88V       0.131000
@<TRIPOS>BOND
     1     1     3 ar  
     2     1     8 ar  
     3     1    36 1   
     4     2     4 ar  
     5     2     8 ar  
     6     2    38 1   
     7     3     9 ar  
     8     3    37 1   
     9     4     9 ar  
    10     4    39 1   
    11     5     6 ar  
    12     5    10 ar  
    13     5    58 1   
    14     6    11 ar  
    15     6    59 1   
    16     7    11 ar  
    17     7    12 ar  
    18     7    40 1   
    19     8    19 1   
    20     9    20 1   
    21    10    12 ar  
    22    10    25 1   
    23    11    26 1   
    24    12    35 1   
    25    13    18 1   
    26    13    25 2   
    27    13    35 1   
    28    14    21 1   
    29    14    26 1   
    30    14    29 2   
    31    15    24 1   
    32    15    30 1   
    33    15    33 1   
    34    16    24 1   
    35    16    31 1   
    36    16    34 1   
    37    17    27 1   
    38    17    28 1   
    39    17    32 2   
    40    18    46 1   
    41    18    47 1   
    42    18    48 1   
    43    19    22 1   
    44    19    41 1   
    45    19    42 1   
    46    20    24 1   
    47    20    43 1   
    48    20    44 1   
    49    21    23 1   
    50    21    49 1   
    51    21    50 1   
    52    22    27 1   
    53    22    54 1   
    54    22    55 1   
    55    23    28 1   
    56    23    56 1   
    57    23    57 1   
    58    24    51 1   
    59    26    45 1   
    60    27    52 1   
    61    28    53 1   
@<TRIPOS>SUBSTRUCTURE
     1 88V         1 TEMP              0 ****  ****    0 ROOT
