@<TRIPOS>MOLECULE
88V
   59    61     1     0     0
SMALL
No Charge or Current Charge


@<TRIPOS>ATOM
      1 C23         -5.6330    -0.0870    -1.1490 ca         1 88V      -0.113500
      2 C27         -5.3120    -0.7480     1.1670 ca         1 88V      -0.113500
      3 C24         -6.9050     0.4180    -0.8280 ca         1 88V      -0.108500
      4 C26         -6.5840    -0.2430     1.4870 ca         1 88V      -0.108500
      5 C5           8.9820    -1.1700     1.7980 ca         1 88V      -0.027000
      6 C6           7.6660    -1.4060     1.3520 ca         1 88V      -0.169000
      7 C8           7.9950     0.1540    -0.4900 ca         1 88V      -0.102000
      8 C22         -4.8300    -0.6740    -0.1530 ca         1 88V      -0.150300
      9 C25         -7.3890     0.3430     0.4920 ca         1 88V       0.006700
     10 C4           9.7970    -0.2710     1.0940 ca         1 88V       0.058400
     11 C7           7.1590    -0.7510     0.2070 ca         1 88V      -0.002000
     12 C9           9.3010     0.3700    -0.0230 ca         1 88V      -0.148000
     13 C2          11.5660     0.9200     0.5570 cc         1 88V       0.390200
     14 C12          5.0440    -0.6220    -1.2480 c          1 88V       0.609100
     15 C30        -11.1550     0.3100     1.5610 c          1 88V       0.741000
     16 C33        -10.1590    -0.9400    -0.2970 c          1 88V       0.741000
     17 C17          0.1320     0.0570    -0.5470 c          1 88V       0.638100
     18 C1          12.9560     1.4810     0.6350 c3         1 88V      -0.114400
     19 C21         -3.4490    -1.2150    -0.4980 c3         1 88V      -0.022100
     20 C28         -8.7660     0.8970     0.8450 c3         1 88V      -0.005100
     21 C14          3.6270    -1.2010    -1.2650 c3         1 88V      -0.178400
     22 C20         -2.3490    -0.1530    -0.3110 c3         1 88V       0.098000
     23 C15          2.5970    -0.1180    -0.9070 c3         1 88V       0.125000
     24 C29         -9.8400    -0.2130     1.0020 c3         1 88V      -0.305700
     25 N3          11.1060     0.0320     1.4500 nd         1 88V      -0.531100
     26 N11          5.8210    -1.0420    -0.1770 ns         1 88V      -0.152000
     27 N19         -1.0200    -0.6720    -0.6420 ns         1 88V      -0.505900
     28 N16          1.2380    -0.6560    -0.9140 ns         1 88V      -0.531900
     29 O13          5.4370     0.1220    -2.1380 o          1 88V      -0.566100
     30 O31        -11.6950     1.2720     1.0360 o          1 88V      -0.769000
     31 O34        -10.4620    -0.2990    -1.2920 o          1 88V      -0.769000
     32 O18          0.1700     1.2180    -0.1770 o          1 88V      -0.635100
     33 O32        -11.5830    -0.2070     2.5820 o          1 88V      -0.769000
     34 O35        -10.0460    -2.1570    -0.3090 o          1 88V      -0.769000
     35 S10         10.4800     1.4500    -0.7480 ss         1 88V       0.011800
     36 H23         -5.2720    -0.0200    -2.1720 ha         1 88V       0.078000
     37 H24         -7.5160     0.8670    -1.6070 ha         1 88V       0.124000
     38 H27         -4.7010    -1.1960     1.9480 ha         1 88V       0.078000
     39 H26         -6.9460    -0.3060     2.5110 ha         1 88V       0.124000
     40 H8           7.6560     0.6890    -1.3720 ha         1 88V       0.163000
     41 H211        -3.2180    -2.0850     0.1290 hc         1 88V       0.032700
     42 H212        -3.4310    -1.5700    -1.5360 hc         1 88V       0.032700
     43 H281        -8.6970     1.4520     1.7880 hc         1 88V       0.041200
     44 H282        -9.0900     1.6270     0.0930 hc         1 88V       0.041200
     45 H11          5.3450    -1.6720     0.4560 hn         1 88V       0.151000
     46 H11C        13.3820     1.6050    -0.3680 hc         1 88V       0.057367
     47 H12C        12.9480     2.4600     1.1260 hc         1 88V       0.057367
     48 H13C        13.6190     0.8180     1.2030 hc         1 88V       0.057367
     49 H141         3.4090    -1.5690    -2.2750 hc         1 88V       0.063200
     50 H142         3.5420    -2.0200    -0.5400 hc         1 88V       0.063200
     51 H29         -9.4730    -0.9670     1.7110 hc         1 88V       0.018700
     52 H19         -0.9400    -1.6280    -0.9620 hn         1 88V       0.288500
     53 H16          1.0970    -1.6140    -1.2090 hn         1 88V       0.289500
     54 H201        -2.5630     0.7110    -0.9540 h1         1 88V       0.057200
     55 H202        -2.3460     0.1890     0.7330 h1         1 88V       0.057200
     56 H151         2.8140     0.2860     0.0920 h1         1 88V       0.065200
     57 H152         2.6550     0.7070    -1.6310 h1         1 88V       0.065200
     58 H5           9.3640    -1.6790     2.6800 ha         1 88V       0.129000
     59 H6           7.0380    -2.1030     1.9010 ha         1 88V       0.113000
@<TRIPOS>BOND
     1     1     3 ar  
     2     1     8 ar  
     3     1    36 1   
     4     2     4 ar  
     5     2     8 ar  
     6     2    38 1   
     7     3     9 ar  
     8     3    37 1   
     9     4     9 ar  
    10     4    39 1   
    11     5     6 ar  
    12     5    10 ar  
    13     5    58 1   
    14     6    11 ar  
    15     6    59 1   
    16     7    11 ar  
    17     7    12 ar  
    18     7    40 1   
    19     8    19 1   
    20     9    20 1   
    21    10    12 ar  
    22    10    25 1   
    23    11    26 1   
    24    12    35 1   
    25    13    18 1   
    26    13    25 2   
    27    13    35 1   
    28    14    21 1   
    29    14    26 1   
    30    14    29 2   
    31    15    24 1   
    32    15    30 1   
    33    15    33 1   
    34    16    24 1   
    35    16    31 1   
    36    16    34 1   
    37    17    27 1   
    38    17    28 1   
    39    17    32 2   
    40    18    46 1   
    41    18    47 1   
    42    18    48 1   
    43    19    22 1   
    44    19    41 1   
    45    19    42 1   
    46    20    24 1   
    47    20    43 1   
    48    20    44 1   
    49    21    23 1   
    50    21    49 1   
    51    21    50 1   
    52    22    27 1   
    53    22    54 1   
    54    22    55 1   
    55    23    28 1   
    56    23    56 1   
    57    23    57 1   
    58    24    51 1   
    59    26    45 1   
    60    27    52 1   
    61    28    53 1   
@<TRIPOS>SUBSTRUCTURE
     1 88V         1 TEMP              0 ****  ****    0 ROOT
