@<TRIPOS>MOLECULE
88W
   39    40     1     0     0
SMALL
No Charge or Current Charge


@<TRIPOS>ATOM
      1 C1           8.9460    -0.6730     0.0650 c3         1 88W      -0.112100
      2 C14         -3.6380    -2.0520    -0.2430 ca         1 88W      -0.025000
      3 C13         -2.2370    -1.9620    -0.1180 ca         1 88W      -0.168000
      4 C2           7.7810     0.2500     0.4550 c3         1 88W       0.116000
      5 C17         -2.4060     0.4450     0.2150 ca         1 88W      -0.099000
      6 C15         -4.4150    -0.8890    -0.1360 ca         1 88W       0.066400
      7 C12         -1.6070    -0.7190     0.1130 ca         1 88W      -0.012000
      8 C16         -3.7990     0.3260     0.0870 ca         1 88W      -0.152000
      9 C19         -6.1930     0.4040    -0.0920 cc         1 88W       0.399200
     10 C9           0.7230     0.3000     0.4880 c          1 88W       0.611100
     11 C4           5.3390     0.4780    -0.0170 c          1 88W       0.642100
     12 C21         -7.6370     0.8060    -0.1550 c3         1 88W      -0.117400
     13 C8           2.1830    -0.1570     0.5150 c3         1 88W      -0.183400
     14 C7           2.9360     0.3580    -0.7250 c3         1 88W       0.127000
     15 N20         -5.8010    -0.8690    -0.2450 nd         1 88W      -0.530100
     16 N3           6.5360    -0.1540    -0.1960 ns         1 88W      -0.523900
     17 N11         -0.1890    -0.7130     0.2250 ns         1 88W      -0.149000
     18 N6           4.3290    -0.0950    -0.7400 ns         1 88W      -0.527900
     19 O10          0.4180     1.4650     0.7140 o          1 88W      -0.566100
     20 O5           5.1900     1.4480     0.7060 o          1 88W      -0.633100
     21 S18         -4.9500     1.6470     0.1830 ss         1 88W       0.015800
     22 H11C         8.7370    -1.7080     0.3620 hc         1 88W       0.041033
     23 H12C         9.1160    -0.6460    -1.0180 hc         1 88W       0.041033
     24 H13C         9.8680    -0.3510     0.5650 hc         1 88W       0.041033
     25 H21          7.6390     0.2210     1.5440 h1         1 88W       0.051200
     26 H22          8.0170     1.2820     0.1650 h1         1 88W       0.051200
     27 H6           4.5680    -0.8940    -1.3130 hn         1 88W       0.295500
     28 H71C         2.4410    -0.0060    -1.6360 h1         1 88W       0.069700
     29 H72C         2.9140     1.4570    -0.7470 h1         1 88W       0.069700
     30 H81          2.6630     0.2520     1.4120 hc         1 88W       0.062700
     31 H82          2.2390    -1.2520     0.5290 hc         1 88W       0.062700
     32 H11          0.2340    -1.6210     0.0810 hn         1 88W       0.149000
     33 H17         -1.9760     1.4270     0.3870 ha         1 88W       0.160000
     34 H14         -4.1150    -3.0130    -0.4200 ha         1 88W       0.132000
     35 H3           6.5530    -0.9500    -0.8190 hn         1 88W       0.301500
     36 H211        -7.8630     1.5650     0.6010 hc         1 88W       0.061033
     37 H212        -7.8770     1.2230    -1.1400 hc         1 88W       0.061033
     38 H213        -8.2960    -0.0530     0.0210 hc         1 88W       0.061033
     39 H13         -1.6390    -2.8670    -0.2010 ha         1 88W       0.112000
@<TRIPOS>BOND
     1     1     4 1   
     2     1    22 1   
     3     1    23 1   
     4     1    24 1   
     5     2     3 ar  
     6     2     6 ar  
     7     2    34 1   
     8     3     7 ar  
     9     3    39 1   
    10     4    16 1   
    11     4    25 1   
    12     4    26 1   
    13     5     7 ar  
    14     5     8 ar  
    15     5    33 1   
    16     6     8 ar  
    17     6    15 1   
    18     7    17 1   
    19     8    21 1   
    20     9    12 1   
    21     9    15 2   
    22     9    21 1   
    23    10    13 1   
    24    10    17 1   
    25    10    19 2   
    26    11    16 1   
    27    11    18 1   
    28    11    20 2   
    29    12    36 1   
    30    12    37 1   
    31    12    38 1   
    32    13    14 1   
    33    13    30 1   
    34    13    31 1   
    35    14    18 1   
    36    14    28 1   
    37    14    29 1   
    38    16    35 1   
    39    17    32 1   
    40    18    27 1   
@<TRIPOS>SUBSTRUCTURE
     1 88W         1 TEMP              0 ****  ****    0 ROOT
