@<TRIPOS>MOLECULE
88W
   39    40     1     0     0
SMALL
abcg2


@<TRIPOS>ATOM
      1 C1           9.0730    -0.4890     0.0740 c3         1 88W      -0.112100
      2 C14         -3.8380    -2.0960    -0.1680 ca         1 88W      -0.025000
      3 C13         -2.4620    -2.0830    -0.1340 ca         1 88W      -0.168000
      4 C2           7.9660     0.5400    -0.0530 c3         1 88W       0.116000
      5 C17         -2.4090     0.3380    -0.0130 ca         1 88W      -0.099000
      6 C15         -4.5310    -0.8870    -0.1240 ca         1 88W       0.066400
      7 C12         -1.7350    -0.8790    -0.0590 ca         1 88W      -0.012000
      8 C16         -3.7970     0.3040    -0.0470 ca         1 88W      -0.152000
      9 C19         -6.2370     0.5020    -0.0970 cc         1 88W       0.399200
     10 C9           0.6090    -0.0400     0.0610 c          1 88W       0.611100
     11 C4           5.5190     0.6110     0.0190 c          1 88W       0.642100
     12 C21         -7.6350     1.0050    -0.0980 c3         1 88W      -0.117400
     13 C8           2.0160    -0.5950     0.0370 c3         1 88W      -0.183400
     14 C7           3.0800     0.4850     0.1200 c3         1 88W       0.127000
     15 N20         -5.8980    -0.7360    -0.1500 nd         1 88W      -0.530100
     16 N3           6.6750    -0.0950     0.1150 ns         1 88W      -0.523900
     17 N11         -0.3440    -1.0030    -0.0410 ns         1 88W      -0.149000
     18 N6           4.3820    -0.1380     0.0380 ns         1 88W      -0.527900
     19 O10          0.3670     1.1480     0.1610 o          1 88W      -0.566100
     20 O5           5.4980     1.8340    -0.0800 o          1 88W      -0.633100
     21 S18         -4.9010     1.6360    -0.0070 ss         1 88W       0.015800
     22 H11C         9.0510    -0.9810     1.0470 hc         1 88W       0.041033
     23 H12C         8.9930    -1.2560    -0.6980 hc         1 88W       0.041033
     24 H13C        10.0450    -0.0090    -0.0350 hc         1 88W       0.041033
     25 H21          8.0950     1.3140     0.7060 h1         1 88W       0.051200
     26 H22          8.0350     1.0360    -1.0260 h1         1 88W       0.051200
     27 H6           4.4510    -1.0990     0.3320 hn         1 88W       0.295500
     28 H71C         2.9610     1.1880    -0.7050 h1         1 88W       0.069700
     29 H72C         2.9650     1.0550     1.0470 h1         1 88W       0.069700
     30 H81          2.1270    -1.3000     0.8680 hc         1 88W       0.062700
     31 H82          2.1470    -1.1820    -0.8780 hc         1 88W       0.062700
     32 H11         -0.0040    -1.9510    -0.1150 hn         1 88W       0.149000
     33 H17         -1.8800     1.2750     0.0460 ha         1 88W       0.160000
     34 H14         -4.3770    -3.0320    -0.2280 ha         1 88W       0.132000
     35 H3           6.6390    -1.0970     0.0150 hn         1 88W       0.301500
     36 H211        -7.8650     1.5170     0.8380 hc         1 88W       0.061033
     37 H212        -7.7980     1.7170    -0.9080 hc         1 88W       0.061033
     38 H213        -8.3250     0.1730    -0.2180 hc         1 88W       0.061033
     39 H13         -1.9240    -3.0220    -0.1690 ha         1 88W       0.112000
@<TRIPOS>BOND
     1     1     4 1   
     2     1    22 1   
     3     1    23 1   
     4     1    24 1   
     5     2     3 ar  
     6     2     6 ar  
     7     2    34 1   
     8     3     7 ar  
     9     3    39 1   
    10     4    16 1   
    11     4    25 1   
    12     4    26 1   
    13     5     7 ar  
    14     5     8 ar  
    15     5    33 1   
    16     6     8 ar  
    17     6    15 1   
    18     7    17 1   
    19     8    21 1   
    20     9    12 1   
    21     9    15 2   
    22     9    21 1   
    23    10    13 1   
    24    10    17 1   
    25    10    19 2   
    26    11    16 1   
    27    11    18 1   
    28    11    20 2   
    29    12    36 1   
    30    12    37 1   
    31    12    38 1   
    32    13    14 1   
    33    13    30 1   
    34    13    31 1   
    35    14    18 1   
    36    14    28 1   
    37    14    29 1   
    38    16    35 1   
    39    17    32 1   
    40    18    27 1   
@<TRIPOS>SUBSTRUCTURE
     1 88W         1 TEMP              0 ****  ****    0 ROOT
