@<TRIPOS>MOLECULE
88X
   33    35     1     0     0
SMALL
bcc


@<TRIPOS>ATOM
      1 CAA         16.3010   -42.8410   -23.5340 c          1 88X       0.715700
      2 CAB         17.5200   -43.0930   -24.3060 cc         1 88X      -0.279200
      3 CAC         18.1160   -42.1440   -25.0500 cd         1 88X       0.015700
      4 NAD         15.7640   -41.5830   -23.5840 nc         1 88X      -0.459400
      5 CAE         16.3740   -40.7000   -24.3080 cd         1 88X       0.185400
      6 NAF         17.5200   -40.8950   -25.0440 na         1 88X      -0.081300
      7 CAG         17.8770   -39.7210   -25.6660 cc         1 88X      -0.091300
      8 CAH         16.9510   -38.7950   -25.3200 cd         1 88X      -0.166900
      9 NAI         16.0330   -39.4140   -24.4960 na         1 88X      -0.212100
     10 OAJ         15.7750   -43.7270   -22.8670 o          1 88X      -0.554100
     11 CAK         16.7600   -37.4130   -25.7630 c          1 88X       0.620300
     12 CAL         17.8740   -36.7350   -26.4640 ca         1 88X      -0.168600
     13 OAM         15.6890   -36.8690   -25.5750 o          1 88X      -0.510100
     14 CAN         19.3260   -42.3490   -25.8980 c3         1 88X      -0.046200
     15 CAO         18.9940   -42.4490   -27.3880 c3         1 88X      -0.092100
     16 CAP         19.2030   -36.9130   -26.0790 ca         1 88X      -0.085000
     17 CAQ         20.2130   -36.2220   -26.7330 ca         1 88X      -0.137000
     18 CAR         19.9060   -35.3640   -27.7780 ca         1 88X      -0.098000
     19 CAS         18.5820   -35.1810   -28.1630 ca         1 88X      -0.137000
     20 CAT         17.5680   -35.8510   -27.5000 ca         1 88X      -0.085000
     21 HAB         17.9490   -44.0850   -24.2800 ha         1 88X       0.163000
     22 HAG         18.7310   -39.6400   -26.3150 h4         1 88X       0.195000
     23 HNAI        15.2250   -38.9760   -24.0820 hn         1 88X       0.349700
     24 H1AN        19.8030   -43.2710   -25.5710 hc         1 88X       0.061700
     25 H2AN        20.0490   -41.5480   -25.7230 hc         1 88X       0.061700
     26 H1AO        19.9020   -42.6550   -27.9540 hc         1 88X       0.043367
     27 H2AO        18.2880   -43.2570   -27.5740 hc         1 88X       0.043367
     28 H3AO        18.5630   -41.5300   -27.7850 hc         1 88X       0.043367
     29 HAP         19.4520   -37.5570   -25.2470 ha         1 88X       0.143500
     30 HAQ         21.2400   -36.3520   -26.4180 ha         1 88X       0.139500
     31 HAR         20.6950   -34.8310   -28.2910 ha         1 88X       0.137000
     32 HAS         18.3420   -34.5120   -28.9790 ha         1 88X       0.139500
     33 HAT         16.5390   -35.7070   -27.8010 ha         1 88X       0.143500
@<TRIPOS>BOND
     1     1     2 1   
     2     1     4 1   
     3     1    10 2   
     4     2     3 2   
     5     2    21 1   
     6     3     6 1   
     7     3    14 1   
     8     4     5 2   
     9     5     6 1   
    10     5     9 1   
    11     6     7 1   
    12     7     8 2   
    13     7    22 1   
    14     8     9 1   
    15     8    11 1   
    16     9    23 1   
    17    11    12 1   
    18    11    13 2   
    19    12    16 ar  
    20    12    20 ar  
    21    14    15 1   
    22    14    24 1   
    23    14    25 1   
    24    15    26 1   
    25    15    27 1   
    26    15    28 1   
    27    16    17 ar  
    28    16    29 1   
    29    17    18 ar  
    30    17    30 1   
    31    18    19 ar  
    32    18    31 1   
    33    19    20 ar  
    34    19    32 1   
    35    20    33 1   
@<TRIPOS>SUBSTRUCTURE
     1 88X         1 TEMP              0 ****  ****    0 ROOT
