@<TRIPOS>MOLECULE
88X
   33    35     1     0     0
SMALL
No Charge or Current Charge


@<TRIPOS>ATOM
      1 CAA         16.2510   -42.9590   -23.6090 c          1 88X       0.715700
      2 CAB         17.4860   -43.0850   -24.4040 cc         1 88X      -0.329200
      3 CAC         18.1070   -42.0610   -25.1110 cd         1 88X       0.015700
      4 NAD         15.7180   -41.6890   -23.6060 nc         1 88X      -0.459400
      5 CAE         16.3110   -40.7200   -24.2680 cd         1 88X       0.084000
      6 NAF         17.4490   -40.8190   -25.0110 na         1 88X       0.020100
      7 CAG         17.8070   -39.6300   -25.6010 cc         1 88X      -0.124000
      8 CAH         16.8170   -38.7370   -25.1790 cd         1 88X      -0.217600
      9 NAI         15.8850   -39.4210   -24.3640 na         1 88X      -0.161000
     10 OAJ         15.7410   -43.8920   -23.0070 o          1 88X      -0.554100
     11 CAK         16.7410   -37.2980   -25.5710 c          1 88X       0.620300
     12 CAL         17.8650   -36.7070   -26.3840 ca         1 88X      -0.168600
     13 OAM         15.7860   -36.6060   -25.2400 o          1 88X      -0.510100
     14 CAN         19.3740   -42.2290   -25.9180 c3         1 88X      -0.046200
     15 CAO         19.1010   -42.3730   -27.4280 c3         1 88X      -0.092100
     16 CAP         19.2120   -36.8760   -25.9940 ca         1 88X      -0.067000
     17 CAQ         20.2480   -36.3060   -26.7550 ca         1 88X      -0.119000
     18 CAR         19.9480   -35.5550   -27.9030 ca         1 88X      -0.080000
     19 CAS         18.6100   -35.3670   -28.2870 ca         1 88X      -0.119000
     20 CAT         17.5720   -35.9350   -27.5280 ca         1 88X      -0.067000
     21 HAB         17.8990   -44.0860   -24.4040 ha         1 88X       0.213000
     22 HAG         18.6690   -39.5120   -26.2470 h4         1 88X       0.177000
     23 HNAI        15.0540   -39.0320   -23.9280 hn         1 88X       0.400000
     24 H1AN        19.9190   -43.1170   -25.5750 hc         1 88X       0.061700
     25 H2AN        20.0510   -41.3820   -25.7510 hc         1 88X       0.061700
     26 H1AO        20.0410   -42.5020   -27.9770 hc         1 88X       0.043367
     27 H2AO        18.4670   -43.2460   -27.6230 hc         1 88X       0.043367
     28 H3AO        18.5930   -41.4850   -27.8220 hc         1 88X       0.043367
     29 HAP         19.4590   -37.4390   -25.0950 ha         1 88X       0.125500
     30 HAQ         21.2830   -36.4420   -26.4510 ha         1 88X       0.121500
     31 HAR         20.7500   -35.1130   -28.4910 ha         1 88X       0.119000
     32 HAS         18.3760   -34.7790   -29.1720 ha         1 88X       0.121500
     33 HAT         16.5380   -35.7820   -27.8330 ha         1 88X       0.125500
@<TRIPOS>BOND
     1     1     2 1   
     2     1     4 1   
     3     1    10 2   
     4     2     3 2   
     5     2    21 1   
     6     3     6 1   
     7     3    14 1   
     8     4     5 2   
     9     5     6 1   
    10     5     9 1   
    11     6     7 1   
    12     7     8 2   
    13     7    22 1   
    14     8     9 1   
    15     8    11 1   
    16     9    23 1   
    17    11    12 1   
    18    11    13 2   
    19    12    16 ar  
    20    12    20 ar  
    21    14    15 1   
    22    14    24 1   
    23    14    25 1   
    24    15    26 1   
    25    15    27 1   
    26    15    28 1   
    27    16    17 ar  
    28    16    29 1   
    29    17    18 ar  
    30    17    30 1   
    31    18    19 ar  
    32    18    31 1   
    33    19    20 ar  
    34    19    32 1   
    35    20    33 1   
@<TRIPOS>SUBSTRUCTURE
     1 88X         1 TEMP              0 ****  ****    0 ROOT
