@<TRIPOS>MOLECULE
88Y
   30    31     1     0     0
SMALL
abcg2


@<TRIPOS>ATOM
      1 C4           3.7420     1.0070    -0.2080 ca         1 88Y      -0.180000
      2 C5          -0.8020     0.7620     0.2540 cc         1 88Y      -0.126000
      3 C6           1.6270    -0.1270     0.0810 ca         1 88Y      -0.078000
      4 C7          -2.0700     0.1280     0.1090 cc         1 88Y      -0.265600
      5 C8           2.3460     1.0250    -0.3040 ca         1 88Y       0.307000
      6 C10         -1.8280    -1.1990    -0.2290 cd         1 88Y      -0.075300
      7 C13         -3.4180     2.2010     0.6160 c3         1 88Y      -0.191100
      8 C1           3.7190    -1.2480     0.6230 ca         1 88Y      -0.151000
      9 C2           4.4200    -0.1080     0.2500 ca         1 88Y      -0.066000
     10 C3           2.3370    -1.2410     0.5370 ca         1 88Y      -0.076000
     11 C9           0.1680    -0.1770     0.0120 cd         1 88Y      -0.127000
     12 C12         -2.7500    -2.3270    -0.5230 c3         1 88Y      -0.032800
     13 N14         -0.4910    -1.3510    -0.2760 na         1 88Y      -0.102000
     14 N15          1.7050     2.1680    -0.7340 nv         1 88Y      -1.067000
     15 O16         -4.4120     0.0920     0.1340 o          1 88Y      -0.556100
     16 H1           4.2980     1.8880    -0.5100 ha         1 88Y       0.112000
     17 H2          -0.6270     1.7860     0.5460 ha         1 88Y       0.143000
     18 H3          -2.9990     2.7900    -0.2030 hc         1 88Y       0.056700
     19 H4          -4.4390     2.5310     0.7940 hc         1 88Y       0.056700
     20 H5          -2.8170     2.4170     1.5000 hc         1 88Y       0.056700
     21 H6           4.2370    -2.1250     0.9860 ha         1 88Y       0.116000
     22 H7           5.5010    -0.0850     0.3100 ha         1 88Y       0.113000
     23 H8           1.7900    -2.1200     0.8550 ha         1 88Y       0.104000
     24 H9          -3.3880    -2.1060    -1.3790 hc         1 88Y       0.056033
     25 H10         -2.1920    -3.2360    -0.7430 hc         1 88Y       0.056033
     26 H11         -3.4080    -2.5290     0.3210 hc         1 88Y       0.056033
     27 H12         -0.0340    -2.2100    -0.5430 hn         1 88Y       0.345000
     28 H13          0.8260     2.0250    -1.2100 hn         1 88Y       0.450500
     29 H14          2.2920     2.8160    -1.2360 hn         1 88Y       0.450500
     30 C11         -3.3820     0.7330     0.2740 c          1 88Y       0.614700
@<TRIPOS>BOND
     1     1     5 ar  
     2     1     9 ar  
     3     1    16 1   
     4     2     4 1   
     5     2    11 2   
     6     2    17 1   
     7     3     5 ar  
     8     3    10 ar  
     9     3    11 1   
    10     4     6 2   
    11     4    30 1   
    12     5    14 1   
    13     6    12 1   
    14     6    13 1   
    15     7    18 1   
    16     7    19 1   
    17     7    20 1   
    18     7    30 1   
    19     8     9 ar  
    20     8    10 ar  
    21     8    21 1   
    22     9    22 1   
    23    10    23 1   
    24    11    13 1   
    25    12    24 1   
    26    12    25 1   
    27    12    26 1   
    28    13    27 1   
    29    14    28 1   
    30    14    29 1   
    31    15    30 2   
@<TRIPOS>SUBSTRUCTURE
     1 88Y         1 TEMP              0 ****  ****    0 ROOT
