@<TRIPOS>MOLECULE
88Y
   30    31     1     0     0
SMALL
No Charge or Current Charge


@<TRIPOS>ATOM
      1 C4           3.7570     1.1240    -0.0240 ca         1 88Y      -0.180000
      2 C5          -0.8170     0.6670     0.1350 cc         1 88Y      -0.126000
      3 C6           1.6560    -0.1470     0.0530 ca         1 88Y      -0.078000
      4 C7          -2.0900     0.0550     0.0450 cc         1 88Y      -0.265600
      5 C8           2.3540     1.0910    -0.0830 ca         1 88Y       0.307000
      6 C10         -1.9030    -1.2950    -0.1110 cd         1 88Y      -0.075300
      7 C13         -3.3860     2.2800     0.2970 c3         1 88Y      -0.191100
      8 C1           3.8300    -1.2770     0.2640 ca         1 88Y      -0.151000
      9 C2           4.4980    -0.0530     0.1530 ca         1 88Y      -0.066000
     10 C3           2.4270    -1.3240     0.2120 ca         1 88Y      -0.076000
     11 C9           0.1690    -0.2860     0.0440 cd         1 88Y      -0.127000
     12 C12         -2.9030    -2.4150    -0.2590 c3         1 88Y      -0.032800
     13 N14         -0.5190    -1.5010    -0.1110 na         1 88Y      -0.102000
     14 N15          1.7220     2.2810    -0.3350 nv         1 88Y      -1.067000
     15 O16         -4.4760     0.1730     0.0360 o          1 88Y      -0.556100
     16 H1           4.2840     2.0680    -0.1290 ha         1 88Y       0.112000
     17 H2          -0.6760     1.7300     0.2940 ha         1 88Y       0.143000
     18 H3          -2.7840     2.7270    -0.5010 hc         1 88Y       0.056700
     19 H4          -4.3920     2.7130     0.3340 hc         1 88Y       0.056700
     20 H5          -2.8100     2.5250     1.1970 hc         1 88Y       0.056700
     21 H6           4.3990    -2.1950     0.3970 ha         1 88Y       0.116000
     22 H7           5.5840    -0.0160     0.1940 ha         1 88Y       0.113000
     23 H8           1.9470    -2.2920     0.3200 ha         1 88Y       0.104000
     24 H9          -3.5360    -2.2630    -1.1400 hc         1 88Y       0.056033
     25 H10         -2.4070    -3.3870    -0.3710 hc         1 88Y       0.056033
     26 H11         -3.5560    -2.4770     0.6200 hc         1 88Y       0.056033
     27 H12         -0.0760    -2.4060    -0.2210 hn         1 88Y       0.345000
     28 H13          0.7780     2.2390    -0.7060 hn         1 88Y       0.450500
     29 H14          2.2810     3.0830    -0.6160 hn         1 88Y       0.450500
     30 C11         -3.4040     0.7610     0.1170 c          1 88Y       0.614700
@<TRIPOS>BOND
     1     1     5 ar  
     2     1     9 ar  
     3     1    16 1   
     4     2     4 1   
     5     2    11 2   
     6     2    17 1   
     7     3     5 ar  
     8     3    10 ar  
     9     3    11 1   
    10     4     6 2   
    11     4    30 1   
    12     5    14 1   
    13     6    12 1   
    14     6    13 1   
    15     7    18 1   
    16     7    19 1   
    17     7    20 1   
    18     7    30 1   
    19     8     9 ar  
    20     8    10 ar  
    21     8    21 1   
    22     9    22 1   
    23    10    23 1   
    24    11    13 1   
    25    12    24 1   
    26    12    25 1   
    27    12    26 1   
    28    13    27 1   
    29    14    28 1   
    30    14    29 1   
    31    15    30 2   
@<TRIPOS>SUBSTRUCTURE
     1 88Y         1 TEMP              0 ****  ****    0 ROOT
