@<TRIPOS>MOLECULE
88Z
   80    85     1     0     0
SMALL
bcc


@<TRIPOS>ATOM
      1 C1           4.2000    -0.3880     1.3400 ca         1 88Z       0.116100
      2 C2           5.0580    -0.0320     0.2480 ca         1 88Z       0.154100
      3 C3           4.5220     0.2300    -0.9830 ca         1 88Z      -0.270300
      4 C4           3.1250     0.1560    -1.2000 ca         1 88Z       0.435600
      5 C5           2.2850    -0.1900    -0.1190 ca         1 88Z      -0.154300
      6 C6           2.8480    -0.4620     1.1520 ca         1 88Z      -0.171000
      7 N7           2.6590     0.4230    -2.4410 nb         1 88Z      -0.683000
      8 C8           1.3660     0.3550    -2.6310 ca         1 88Z       0.443200
      9 C9           0.4290     0.0270    -1.6400 ca         1 88Z      -0.342300
     10 C10          0.8970    -0.2470    -0.3790 ca         1 88Z       0.184100
     11 O11          4.8380    -0.6240     2.4950 os         1 88Z      -0.295900
     12 C12          4.0640    -0.9870     3.6210 c3         1 88Z       0.119700
     13 O13          6.3580     0.0130     0.5540 os         1 88Z      -0.299900
     14 O14          0.1130    -0.5600     0.6770 os         1 88Z      -0.229200
     15 C15         -1.2300    -0.7350     0.4830 ca         1 88Z       0.019100
     16 C16         -2.1330     0.2710     0.7810 ca         1 88Z      -0.075000
     17 C17         -3.4900     0.0500     0.6360 ca         1 88Z      -0.197000
     18 C18         -3.9710    -1.1810     0.1830 ca         1 88Z       0.104600
     19 C19         -3.0660    -2.1960    -0.1260 ca         1 88Z      -0.192000
     20 C20         -1.7180    -1.9480     0.0300 ca         1 88Z       0.159900
     21 F21         -0.8440    -2.9130    -0.2710 f          1 88Z      -0.120900
     22 N22         -5.3580    -1.3100     0.0850 ns         1 88Z      -0.466100
     23 C23          7.2800     0.4120    -0.4510 c3         1 88Z       0.136400
     24 C24          8.6630     0.4310     0.1650 c3         1 88Z      -0.083400
     25 C25          9.7010     0.8410    -0.8720 c3         1 88Z       0.170800
     26 N26         11.0150     1.0730    -0.3060 n3         1 88Z      -0.715600
     27 C27         11.6310    -0.1310     0.2240 c6         1 88Z       0.125800
     28 C28         12.9930     0.1950     0.8090 c6         1 88Z       0.129900
     29 O29         13.8410     0.8010    -0.1390 os         1 88Z      -0.402600
     30 C30         13.2510     1.9740    -0.6560 c6         1 88Z       0.129900
     31 C31         11.8990     1.6870    -1.2800 c6         1 88Z       0.125800
     32 C32         -6.0840    -2.3620    -0.3720 c          1 88Z       0.721100
     33 C33         -7.5790    -2.2070    -0.3190 cx         1 88Z      -0.345000
     34 C34         -8.1710    -0.9700     0.3110 c          1 88Z       0.698100
     35 N35         -8.0820     0.1220    -0.4890 ns         1 88Z      -0.479100
     36 O36         -5.5840    -3.3860    -0.7980 o          1 88Z      -0.572100
     37 O37         -8.6530    -0.9680     1.4260 o          1 88Z      -0.552100
     38 C38         -8.5530     1.4220    -0.2460 ca         1 88Z       0.041600
     39 C39         -8.7610     2.2390    -1.3580 ca         1 88Z      -0.135000
     40 C40         -9.2020     3.5430    -1.2120 ca         1 88Z      -0.143500
     41 C41         -9.4380     4.0240     0.0600 ca         1 88Z       0.118900
     42 C42         -9.2360     3.2410     1.1780 ca         1 88Z      -0.143500
     43 C43         -8.7890     1.9350     1.0280 ca         1 88Z      -0.135000
     44 F44         -9.8710     5.2860     0.2120 f          1 88Z      -0.139900
     45 C45         -8.3540    -3.4850    -0.1450 cx         1 88Z      -0.074900
     46 C46         -8.3420    -2.8270    -1.4730 cx         1 88Z      -0.074900
     47 H3           5.1410     0.4960    -1.8290 ha         1 88Z       0.157000
     48 H6           2.1960    -0.7270     1.9720 ha         1 88Z       0.154000
     49 H8           1.0070     0.5720    -3.6320 h4         1 88Z       0.016100
     50 H9          -0.6230     0.0090    -1.8870 ha         1 88Z       0.149000
     51 H12          4.7630    -1.1380     4.4400 h1         1 88Z       0.042700
     52 H12A         3.3570    -0.2000     3.9000 h1         1 88Z       0.042700
     53 H12B         3.5110    -1.9140     3.4510 h1         1 88Z       0.042700
     54 H16         -1.7730     1.2270     1.1370 ha         1 88Z       0.154000
     55 H17         -4.1810     0.8470     0.8790 ha         1 88Z       0.141000
     56 H19         -3.3850    -3.1620    -0.4810 ha         1 88Z       0.188000
     57 HN22        -5.8590    -0.4820     0.3680 hn         1 88Z       0.329500
     58 H23          7.2410    -0.2840    -1.2970 h1         1 88Z       0.037200
     59 H23A         7.0150     1.4060    -0.8280 h1         1 88Z       0.037200
     60 H24          8.6870     1.1410     0.9960 hc         1 88Z       0.064700
     61 H24A         8.8870    -0.5580     0.5700 hc         1 88Z       0.064700
     62 H25          9.7350     0.0890    -1.6800 h1         1 88Z       0.031200
     63 H25A         9.3790     1.7770    -1.3380 h1         1 88Z       0.031200
     64 H27         11.0140    -0.5500     1.0210 h1         1 88Z       0.041450
     65 H27A        11.7360    -0.9090    -0.5520 h1         1 88Z       0.041450
     66 H28         12.8640     0.8500     1.6830 h1         1 88Z       0.051200
     67 H28A        13.4810    -0.7210     1.1470 h1         1 88Z       0.051200
     68 H30         13.1300     2.7240     0.1380 h1         1 88Z       0.051200
     69 H30A        13.9310     2.3820    -1.4050 h1         1 88Z       0.051200
     70 H31         12.0320     1.0500    -2.1720 h1         1 88Z       0.041450
     71 H31A        11.4620     2.6290    -1.6210 h1         1 88Z       0.041450
     72 HN35        -7.7750    -0.0500    -1.4360 hn         1 88Z       0.323500
     73 H39         -8.5780     1.8530    -2.3540 ha         1 88Z       0.149500
     74 H40         -9.3610     4.1680    -2.0800 ha         1 88Z       0.154500
     75 H42         -9.4200     3.6390     2.1670 ha         1 88Z       0.154500
     76 H43         -8.6270     1.3390     1.9110 ha         1 88Z       0.149500
     77 H45         -7.7810    -4.3920    -0.0140 hc         1 88Z       0.093450
     78 H45A        -9.2550    -3.4270     0.4500 hc         1 88Z       0.093450
     79 H46         -9.2350    -2.3080    -1.7970 hc         1 88Z       0.093450
     80 H46A        -7.7580    -3.2670    -2.2710 hc         1 88Z       0.093450
@<TRIPOS>BOND
     1     1     2 ar  
     2     1     6 ar  
     3     1    11 1   
     4     2     3 ar  
     5     2    13 1   
     6     3     4 ar  
     7     3    47 1   
     8     4     5 ar  
     9     4     7 ar  
    10     5     6 ar  
    11     5    10 ar  
    12     6    48 1   
    13     7     8 ar  
    14     8     9 ar  
    15     8    49 1   
    16     9    10 ar  
    17     9    50 1   
    18    10    14 1   
    19    11    12 1   
    20    12    51 1   
    21    12    52 1   
    22    12    53 1   
    23    13    23 1   
    24    14    15 1   
    25    15    16 ar  
    26    15    20 ar  
    27    16    17 ar  
    28    16    54 1   
    29    17    18 ar  
    30    17    55 1   
    31    18    19 ar  
    32    18    22 1   
    33    19    20 ar  
    34    19    56 1   
    35    20    21 1   
    36    22    32 1   
    37    22    57 1   
    38    23    24 1   
    39    23    58 1   
    40    23    59 1   
    41    24    25 1   
    42    24    60 1   
    43    24    61 1   
    44    25    26 1   
    45    25    62 1   
    46    25    63 1   
    47    26    27 1   
    48    26    31 1   
    49    27    28 1   
    50    27    64 1   
    51    27    65 1   
    52    28    29 1   
    53    28    66 1   
    54    28    67 1   
    55    29    30 1   
    56    30    31 1   
    57    30    68 1   
    58    30    69 1   
    59    31    70 1   
    60    31    71 1   
    61    32    33 1   
    62    32    36 2   
    63    33    34 1   
    64    33    45 1   
    65    33    46 1   
    66    34    35 1   
    67    34    37 2   
    68    35    38 1   
    69    35    72 1   
    70    38    39 ar  
    71    38    43 ar  
    72    39    40 ar  
    73    39    73 1   
    74    40    41 ar  
    75    40    74 1   
    76    41    42 ar  
    77    41    44 1   
    78    42    43 ar  
    79    42    75 1   
    80    43    76 1   
    81    45    46 1   
    82    45    77 1   
    83    45    78 1   
    84    46    79 1   
    85    46    80 1   
@<TRIPOS>SUBSTRUCTURE
     1 88Z         1 TEMP              0 ****  ****    0 ROOT
