@<TRIPOS>MOLECULE
88Z
   80    85     1     0     0
SMALL
No Charge or Current Charge


@<TRIPOS>ATOM
      1 C1           4.4590    -0.7500     1.5460 ca         1 88Z       0.116100
      2 C2           5.2060     0.1570     0.7590 ca         1 88Z       0.154100
      3 C3           4.5580     1.2500     0.1430 ca         1 88Z      -0.187000
      4 C4           3.1790     1.4550     0.2980 ca         1 88Z       0.305000
      5 C5           2.4330     0.5450     1.0860 ca         1 88Z      -0.089000
      6 C6           3.0710    -0.5520     1.7060 ca         1 88Z      -0.153000
      7 N7           2.6050     2.5170    -0.3110 nb         1 88Z      -0.683000
      8 C8           1.2790     2.7170    -0.1610 ca         1 88Z       0.377900
      9 C9           0.4670     1.8710     0.5990 ca         1 88Z      -0.259000
     10 C10          1.0470     0.7600     1.2290 ca         1 88Z       0.184100
     11 O11          5.1200    -1.8150     2.1380 os         1 88Z      -0.319100
     12 C12          4.4450    -2.7890     2.9530 c3         1 88Z       0.142900
     13 O13          6.5670    -0.0580     0.6160 os         1 88Z      -0.323100
     14 O14          0.2810    -0.0930     1.9970 os         1 88Z      -0.229200
     15 C15         -1.0420    -0.3610     1.7170 ca         1 88Z       0.019100
     16 C16         -1.9960    -0.1990     2.7330 ca         1 88Z      -0.057000
     17 C17         -3.3510    -0.4700     2.4760 ca         1 88Z      -0.179000
     18 C18         -3.7720    -0.9110     1.2070 ca         1 88Z       0.012000
     19 C19         -2.8060    -1.0880     0.1920 ca         1 88Z      -0.174000
     20 C20         -1.4520    -0.8180     0.4460 ca         1 88Z       0.195000
     21 F21         -0.5470    -1.0170    -0.5410 f          1 88Z      -0.156000
     22 N22         -5.1580    -1.1650     1.0260 ns         1 88Z      -0.140000
     23 C23          7.4100     0.8060    -0.1640 c3         1 88Z       0.159600
     24 C24          8.8430     0.2510    -0.0890 c3         1 88Z      -0.083400
     25 C25          9.8450     1.1000    -0.8990 c3         1 88Z       0.170800
     26 N26         11.2660     0.7010    -0.7410 n3         1 88Z      -0.715600
     27 C27         11.5720    -0.6860    -1.2260 c6         1 88Z       0.125800
     28 C28         13.0780    -1.0460    -1.0420 c6         1 88Z       0.153100
     29 O29         13.9160    -0.0560    -1.6840 os         1 88Z      -0.449000
     30 C30         13.6940     1.2790    -1.1700 c6         1 88Z       0.153100
     31 C31         12.2030     1.6890    -1.3620 c6         1 88Z       0.125800
     32 C32         -5.8990    -1.5550    -0.0780 c          1 88Z       0.654100
     33 C33         -7.3630    -1.7090     0.2000 cx         1 88Z      -0.345000
     34 C34         -8.1320    -0.4290     0.0820 c          1 88Z       0.631100
     35 N35         -8.5660    -0.1540    -1.2070 ns         1 88Z      -0.153000
     36 O36         -5.4430    -1.7520    -1.1960 o          1 88Z      -0.572100
     37 O37         -8.3220     0.2850     1.0560 o          1 88Z      -0.552100
     38 C38         -9.3100     0.9240    -1.7600 ca         1 88Z      -0.051000
     39 C39         -9.5510     0.9040    -3.1480 ca         1 88Z      -0.117000
     40 C40        -10.2810     1.9370    -3.7640 ca         1 88Z      -0.125500
     41 C41        -10.7750     2.9980    -2.9920 ca         1 88Z       0.154000
     42 C42        -10.5440     3.0320    -1.6090 ca         1 88Z      -0.125500
     43 C43         -9.8150     1.9990    -0.9910 ca         1 88Z      -0.117000
     44 F44        -11.4760     3.9910    -3.5820 f          1 88Z      -0.175000
     45 C45         -7.7990    -2.7220     1.2520 cx         1 88Z      -0.074900
     46 C46         -8.0480    -3.0080    -0.2110 cx         1 88Z      -0.074900
     47 H3           5.1120     1.9580    -0.4640 ha         1 88Z       0.139000
     48 H6           2.4820    -1.2390     2.3060 ha         1 88Z       0.136000
     49 H8           0.8580     3.5870    -0.6640 h4         1 88Z       0.016100
     50 H9          -0.5920     2.0860     0.6940 ha         1 88Z       0.131000
     51 H12          5.1580    -3.5390     3.3170 h1         1 88Z       0.042700
     52 H12A         3.9790    -2.3130     3.8250 h1         1 88Z       0.042700
     53 H12B         3.6690    -3.3100     2.3780 h1         1 88Z       0.042700
     54 H16         -1.6850     0.1420     3.7190 ha         1 88Z       0.136000
     55 H17         -4.0800    -0.3340     3.2740 ha         1 88Z       0.123000
     56 H19         -3.0770    -1.4400    -0.7980 ha         1 88Z       0.170000
     57 HN22        -5.7110    -1.0370     1.8640 hn         1 88Z       0.163000
     58 H23          7.0800     0.8290    -1.2110 h1         1 88Z       0.037200
     59 H23A         7.3920     1.8290     0.2350 h1         1 88Z       0.037200
     60 H24          9.1620     0.2210     0.9590 hc         1 88Z       0.064700
     61 H24A         8.8390    -0.7790    -0.4630 hc         1 88Z       0.064700
     62 H25          9.5630     1.0620    -1.9610 h1         1 88Z       0.031200
     63 H25A         9.7320     2.1440    -0.5760 h1         1 88Z       0.031200
     64 H27         10.9770    -1.4310    -0.6800 h1         1 88Z       0.041450
     65 H27A        11.3150    -0.7830    -2.2910 h1         1 88Z       0.041450
     66 H28         13.3240    -1.0910     0.0280 h1         1 88Z       0.051200
     67 H28A        13.2830    -2.0320    -1.4820 h1         1 88Z       0.051200
     68 H30         13.9570     1.3060    -0.1030 h1         1 88Z       0.051200
     69 H30A        14.3480     1.9840    -1.7020 h1         1 88Z       0.051200
     70 H31         12.0010     1.7810    -2.4400 h1         1 88Z       0.041450
     71 H31A        12.0540     2.6860    -0.9210 h1         1 88Z       0.041450
     72 HN35        -8.3020    -0.8590    -1.8830 hn         1 88Z       0.157000
     73 H39         -9.1720     0.0850    -3.7560 ha         1 88Z       0.131500
     74 H40        -10.4630     1.9160    -4.8360 ha         1 88Z       0.136500
     75 H42        -10.9320     3.8570    -1.0170 ha         1 88Z       0.136500
     76 H43         -9.6570     2.0540     0.0810 ha         1 88Z       0.131500
     77 H45         -7.0380    -3.3160     1.7540 hc         1 88Z       0.093450
     78 H45A        -8.6620    -2.4850     1.8720 hc         1 88Z       0.093450
     79 H46         -9.0780    -2.9680    -0.5590 hc         1 88Z       0.093450
     80 H46A        -7.4460    -3.7830    -0.6810 hc         1 88Z       0.093450
@<TRIPOS>BOND
     1     1     2 ar  
     2     1     6 ar  
     3     1    11 1   
     4     2     3 ar  
     5     2    13 1   
     6     3     4 ar  
     7     3    47 1   
     8     4     5 ar  
     9     4     7 ar  
    10     5     6 ar  
    11     5    10 ar  
    12     6    48 1   
    13     7     8 ar  
    14     8     9 ar  
    15     8    49 1   
    16     9    10 ar  
    17     9    50 1   
    18    10    14 1   
    19    11    12 1   
    20    12    51 1   
    21    12    52 1   
    22    12    53 1   
    23    13    23 1   
    24    14    15 1   
    25    15    16 ar  
    26    15    20 ar  
    27    16    17 ar  
    28    16    54 1   
    29    17    18 ar  
    30    17    55 1   
    31    18    19 ar  
    32    18    22 1   
    33    19    20 ar  
    34    19    56 1   
    35    20    21 1   
    36    22    32 1   
    37    22    57 1   
    38    23    24 1   
    39    23    58 1   
    40    23    59 1   
    41    24    25 1   
    42    24    60 1   
    43    24    61 1   
    44    25    26 1   
    45    25    62 1   
    46    25    63 1   
    47    26    27 1   
    48    26    31 1   
    49    27    28 1   
    50    27    64 1   
    51    27    65 1   
    52    28    29 1   
    53    28    66 1   
    54    28    67 1   
    55    29    30 1   
    56    30    31 1   
    57    30    68 1   
    58    30    69 1   
    59    31    70 1   
    60    31    71 1   
    61    32    33 1   
    62    32    36 2   
    63    33    34 1   
    64    33    45 1   
    65    33    46 1   
    66    34    35 1   
    67    34    37 2   
    68    35    38 1   
    69    35    72 1   
    70    38    39 ar  
    71    38    43 ar  
    72    39    40 ar  
    73    39    73 1   
    74    40    41 ar  
    75    40    74 1   
    76    41    42 ar  
    77    41    44 1   
    78    42    43 ar  
    79    42    75 1   
    80    43    76 1   
    81    45    46 1   
    82    45    77 1   
    83    45    78 1   
    84    46    79 1   
    85    46    80 1   
@<TRIPOS>SUBSTRUCTURE
     1 88Z         1 TEMP              0 ****  ****    0 ROOT
