@<TRIPOS>MOLECULE
890
   38    40     1     0     0
SMALL
bcc


@<TRIPOS>ATOM
      1 C01          5.4320     1.6640     1.6040 c3         1 890       0.127700
      2 O02          5.0700     0.9990     0.4130 os         1 890      -0.325900
      3 C03          3.8120     0.5130     0.3040 ca         1 890       0.074100
      4 C04          2.8190     0.6590     1.2600 ca         1 890      -0.162000
      5 C05          1.5540     0.1170     1.0600 ca         1 890      -0.136000
      6 C06          1.2720    -0.5650    -0.1140 ca         1 890       0.128600
      7 N07         -0.0270    -1.1090    -0.2880 nh         1 890      -0.560800
      8 C08         -0.1230    -2.3710    -1.0110 c3         1 890       0.205100
      9 C09         -1.0870    -0.2290    -0.3680 cc         1 890       0.262800
     10 C10         -0.9470     1.0470    -0.8220 cd         1 890      -0.351200
     11 C11         -2.0620     1.9330    -0.9750 c          1 890       0.758800
     12 O12         -2.0220     3.0610    -1.4110 o          1 890      -0.568500
     13 O13         -3.2920     1.4460    -0.6500 os         1 890      -0.340200
     14 C14         -3.4680     0.2260    -0.0960 ca         1 890       0.177100
     15 C15         -4.7570    -0.0960     0.3110 ca         1 890      -0.154000
     16 C16         -4.9790    -1.2980     0.9540 ca         1 890      -0.080000
     17 C17         -3.9180    -2.1640     1.2140 ca         1 890      -0.165000
     18 C18         -2.6460    -1.8410     0.7930 ca         1 890      -0.069000
     19 C19         -2.4010    -0.6540     0.0900 ca         1 890      -0.158800
     20 C20          2.2690    -0.7180    -1.0750 ca         1 890      -0.203000
     21 C21          3.5450    -0.1950    -0.8840 ca         1 890       0.140600
     22 N22          4.5170    -0.2980    -1.8600 nv         1 890      -0.807200
     23 H1           4.8300     2.5620     1.7720 h1         1 890       0.040367
     24 H2           5.3420     1.0140     2.4780 h1         1 890       0.040367
     25 H3           6.4720     1.9590     1.4920 h1         1 890       0.040367
     26 H4           3.0170     1.1870     2.1830 ha         1 890       0.138000
     27 H5           0.7960     0.2270     1.8240 ha         1 890       0.144000
     28 H6           0.5010    -3.1220    -0.5300 h1         1 890       0.042700
     29 H7          -1.1460    -2.7330    -1.0220 h1         1 890       0.042700
     30 H8           0.1890    -2.2680    -2.0530 h1         1 890       0.042700
     31 H9           0.0130     1.4240    -1.1450 ha         1 890       0.174000
     32 H10         -5.5660     0.6020     0.1360 ha         1 890       0.157000
     33 H11         -5.9800    -1.5540     1.2760 ha         1 890       0.138000
     34 H12         -4.0890    -3.0850     1.7550 ha         1 890       0.138000
     35 H13         -1.8250    -2.5030     1.0300 ha         1 890       0.144000
     36 H14          2.0650    -1.2460    -1.9980 ha         1 890       0.136000
     37 H15          5.4690    -0.2920    -1.5280 hn         1 890       0.394300
     38 H16          4.3680    -1.0390    -2.5260 hn         1 890       0.394300
@<TRIPOS>BOND
     1     1     2 1   
     2     1    23 1   
     3     1    24 1   
     4     1    25 1   
     5     2     3 1   
     6     3     4 ar  
     7     3    21 ar  
     8     4     5 ar  
     9     4    26 1   
    10     5     6 ar  
    11     5    27 1   
    12     6     7 1   
    13     6    20 ar  
    14     7     8 1   
    15     7     9 1   
    16     8    28 1   
    17     8    29 1   
    18     8    30 1   
    19     9    10 2   
    20     9    19 1   
    21    10    11 1   
    22    10    31 1   
    23    11    12 2   
    24    11    13 1   
    25    13    14 1   
    26    14    15 ar  
    27    14    19 ar  
    28    15    16 ar  
    29    15    32 1   
    30    16    17 ar  
    31    16    33 1   
    32    17    18 ar  
    33    17    34 1   
    34    18    19 ar  
    35    18    35 1   
    36    20    21 ar  
    37    20    36 1   
    38    21    22 1   
    39    22    37 1   
    40    22    38 1   
@<TRIPOS>SUBSTRUCTURE
     1 890         1 TEMP              0 ****  ****    0 ROOT
