@<TRIPOS>MOLECULE
890
   38    40     1     0     0
SMALL
No Charge or Current Charge


@<TRIPOS>ATOM
      1 C01          5.2370     1.5990     1.9990 c3         1 890       0.150900
      2 O02          5.0330     0.6500     0.9370 os         1 890      -0.349100
      3 C03          3.7690     0.3210     0.4630 ca         1 890       0.074100
      4 C04          2.6000     0.8990     1.0010 ca         1 890      -0.144000
      5 C05          1.3400     0.5350     0.4950 ca         1 890      -0.118000
      6 C06          1.2120    -0.4050    -0.5490 ca         1 890       0.267000
      7 N07         -0.0850    -0.7440    -1.0300 nh         1 890      -0.699200
      8 C08         -0.2350    -1.9530    -1.8780 c3         1 890       0.205100
      9 C09         -1.2320    -0.0150    -0.8110 cc         1 890       0.262800
     10 C10         -1.4090     1.2180    -1.3680 cd         1 890      -0.401200
     11 C11         -2.6270     2.0090    -1.1870 c          1 890       0.683300
     12 O12         -2.7710     3.1040    -1.7090 o          1 890      -0.493000
     13 O13         -3.6030     1.4460    -0.4150 os         1 890      -0.340200
     14 C14         -3.4720     0.2330     0.2090 ca         1 890       0.177100
     15 C15         -4.5210    -0.2220     1.0230 ca         1 890      -0.136000
     16 C16         -4.4090    -1.4460     1.7000 ca         1 890      -0.062000
     17 C17         -3.2380    -2.2090     1.5650 ca         1 890      -0.147000
     18 C18         -2.1860    -1.7550     0.7500 ca         1 890      -0.051000
     19 C19         -2.2990    -0.5310     0.0490 ca         1 890      -0.158800
     20 C20          2.3870    -0.9780    -1.0830 ca         1 890      -0.185000
     21 C21          3.6510    -0.6240    -0.5900 ca         1 890       0.279000
     22 N22          4.7670    -1.2110    -1.1460 nv         1 890      -1.056000
     23 H1           4.8450     2.5860     1.7220 h1         1 890       0.040367
     24 H2           4.7400     1.2670     2.9200 h1         1 890       0.040367
     25 H3           6.3080     1.7070     2.2120 h1         1 890       0.040367
     26 H4           2.6450     1.6250     1.8070 ha         1 890       0.120000
     27 H5           0.4540     0.9870     0.9290 ha         1 890       0.126000
     28 H6           0.2470    -2.8200    -1.4060 h1         1 890       0.042700
     29 H7          -1.2950    -2.2010    -2.0260 h1         1 890       0.042700
     30 H8           0.2110    -1.7880    -2.8670 h1         1 890       0.042700
     31 H9          -0.6580     1.6710    -2.0000 ha         1 890       0.224000
     32 H10         -5.4190     0.3800     1.1330 ha         1 890       0.139000
     33 H11         -5.2210    -1.7980     2.3330 ha         1 890       0.120000
     34 H12         -3.1420    -3.1530     2.0970 ha         1 890       0.120000
     35 H13         -1.2850    -2.3580     0.6740 ha         1 890       0.126000
     36 H14          2.3330    -1.6950    -1.8940 ha         1 890       0.118000
     37 H15          5.6710    -1.0520    -0.7040 hn         1 890       0.449500
     38 H16          4.6730    -2.0170    -1.7610 hn         1 890       0.449500
@<TRIPOS>BOND
     1     1     2 1   
     2     1    23 1   
     3     1    24 1   
     4     1    25 1   
     5     2     3 1   
     6     3     4 ar  
     7     3    21 ar  
     8     4     5 ar  
     9     4    26 1   
    10     5     6 ar  
    11     5    27 1   
    12     6     7 1   
    13     6    20 ar  
    14     7     8 1   
    15     7     9 1   
    16     8    28 1   
    17     8    29 1   
    18     8    30 1   
    19     9    10 2   
    20     9    19 1   
    21    10    11 1   
    22    10    31 1   
    23    11    12 2   
    24    11    13 1   
    25    13    14 1   
    26    14    15 ar  
    27    14    19 ar  
    28    15    16 ar  
    29    15    32 1   
    30    16    17 ar  
    31    16    33 1   
    32    17    18 ar  
    33    17    34 1   
    34    18    19 ar  
    35    18    35 1   
    36    20    21 ar  
    37    20    36 1   
    38    21    22 1   
    39    22    37 1   
    40    22    38 1   
@<TRIPOS>SUBSTRUCTURE
     1 890         1 TEMP              0 ****  ****    0 ROOT
