@<TRIPOS>MOLECULE
891
   47    49     1     0     0
SMALL
bcc


@<TRIPOS>ATOM
      1 C16         -2.3850     0.6940     0.0110 ca         1 891       0.962900
      2 C13          0.0570     0.2180     1.0000 ca         1 891      -0.426400
      3 C11          1.3710    -0.0440     1.4690 cc         1 891      -0.003200
      4 C12         -0.2850    -0.0760    -0.3320 ca         1 891       0.636200
      5 C10          2.2640    -0.5970     0.6300 cd         1 891      -0.048100
      6 C1          -4.6880     1.5560     0.2200 c3         1 891       0.279500
      7 C2          -4.6420     3.0750     0.0940 c3         1 891      -0.109100
      8 C5          -7.9070    -1.0450    -0.2850 c3         1 891      -0.227300
      9 N8           0.6480    -0.6290    -1.1680 n          1 891      -0.428300
     10 C3          -6.0240     1.0350    -0.2940 c3         1 891      -0.211600
     11 C25          6.8710     0.9310    -0.4230 ca         1 891       0.136900
     12 C24          5.6670     1.5930    -0.5310 ca         1 891      -0.157000
     13 C23          4.5180     0.9790    -0.0480 ca         1 891      -0.141000
     14 C26          6.9690    -0.3250     0.1480 ca         1 891      -0.191000
     15 C27          5.8120    -0.9140     0.6090 ca         1 891       0.153900
     16 F28          5.8690    -2.1310     1.1590 f          1 891      -0.121900
     17 C21          4.5770    -0.2820     0.5220 ca         1 891       0.081100
     18 O20          3.5120    -0.9420     1.0530 os         1 891      -0.206200
     19 C9           1.9370    -0.9340    -0.7550 c          1 891       0.699700
     20 O18          2.7510    -1.4490    -1.5000 o          1 891      -0.588500
     21 C14         -0.9650     0.7770     1.7640 ca         1 891       0.538200
     22 N15         -2.1670     1.0210     1.2980 nb         1 891      -0.781000
     23 N17         -1.4870     0.1590    -0.8190 nb         1 891      -0.825000
     24 C22          0.2540    -0.9280    -2.5400 c3         1 891       0.080300
     25 N19         -3.6070     0.9130    -0.4940 nu         1 891      -0.872900
     26 S4          -6.1590    -0.7520    -0.1340 s6         1 891       1.005000
     27 O6          -5.7360    -1.1280     1.2160 o          1 891      -0.578800
     28 O7          -5.4930    -1.3950    -1.2670 o          1 891      -0.578800
     29 H11          1.6380     0.1920     2.4920 ha         1 891       0.156000
     30 H1          -4.5940     1.2900     1.2720 h1         1 891       0.106700
     31 H2          -4.7390     3.3870    -0.9470 hc         1 891       0.048033
     32 H2A         -5.4480     3.5350     0.6670 hc         1 891       0.048033
     33 H2B         -3.6950     3.4540     0.4800 hc         1 891       0.048033
     34 H5          -8.2520    -0.6790    -1.2500 h1         1 891       0.104700
     35 H5A         -8.0560    -2.1220    -0.2210 h1         1 891       0.104700
     36 H5B         -8.4360    -0.5480     0.5250 h1         1 891       0.104700
     37 H3          -6.8360     1.4760     0.2870 h1         1 891       0.101200
     38 H3A         -6.1880     1.2770    -1.3470 h1         1 891       0.101200
     39 H24          5.6140     2.5750    -0.9810 ha         1 891       0.153000
     40 H23          3.5740     1.5040    -0.1210 ha         1 891       0.144000
     41 H26          7.9190    -0.8380     0.2310 ha         1 891       0.169000
     42 H14         -0.7760     1.0360     2.8010 h4         1 891       0.028100
     43 H22         -0.0750    -0.0210    -3.0410 h1         1 891       0.061700
     44 H22A         1.1040    -1.3410    -3.0700 h1         1 891       0.061700
     45 H22B        -0.5600    -1.6490    -2.5500 h1         1 891       0.061700
     46 HN19        -3.7160     0.7380    -1.4810 hn         1 891       0.460800
     47 F29          7.9870     1.5140    -0.8820 f          1 891      -0.138900
@<TRIPOS>BOND
     1     1    22 ar  
     2     1    23 ar  
     3     1    25 1   
     4     2     3 1   
     5     2     4 ar  
     6     2    21 ar  
     7     3     5 2   
     8     3    29 1   
     9     4     9 1   
    10     4    23 ar  
    11     5    18 1   
    12     5    19 1   
    13     6     7 1   
    14     6    10 1   
    15     6    25 1   
    16     6    30 1   
    17     7    31 1   
    18     7    32 1   
    19     7    33 1   
    20     8    26 1   
    21     8    34 1   
    22     8    35 1   
    23     8    36 1   
    24     9    19 1   
    25     9    24 1   
    26    10    26 1   
    27    10    37 1   
    28    10    38 1   
    29    11    12 ar  
    30    11    14 ar  
    31    11    47 1   
    32    12    13 ar  
    33    12    39 1   
    34    13    17 ar  
    35    13    40 1   
    36    14    15 ar  
    37    14    41 1   
    38    15    16 1   
    39    15    17 ar  
    40    17    18 1   
    41    19    20 2   
    42    21    22 ar  
    43    21    42 1   
    44    24    43 1   
    45    24    44 1   
    46    24    45 1   
    47    25    46 1   
    48    26    27 2   
    49    26    28 2   
@<TRIPOS>SUBSTRUCTURE
     1 891         1 TEMP              0 ****  ****    0 ROOT
