@<TRIPOS>MOLECULE
891
   47    49     1     0     0
SMALL
No Charge or Current Charge


@<TRIPOS>ATOM
      1 C16         -2.3980     0.6540     0.1840 ca         1 891       0.436900
      2 C13          0.0850     0.2680     1.1060 ca         1 891      -0.295800
      3 C11          1.4330     0.0620     1.6170 cc         1 891      -0.053200
      4 C12         -0.2490    -0.0190    -0.2260 ca         1 891       0.307900
      5 C10          2.3610    -0.4520     0.7370 cd         1 891      -0.048100
      6 C1          -4.8340     1.4200     0.3310 c3         1 891       0.279500
      7 C2          -4.7180     2.9550     0.2760 c3         1 891      -0.109100
      8 C5          -8.1710    -0.9780    -0.6720 c3         1 891      -0.338100
      9 N8           0.7410    -0.5330    -1.1230 n          1 891      -0.361300
     10 C3          -6.1060     0.9390    -0.3760 c3         1 891      -0.322400
     11 C25          7.0710     0.7550    -0.7360 ca         1 891       0.172000
     12 C24          5.8960     1.5230    -0.7840 ca         1 891      -0.139000
     13 C23          4.7360     1.0750    -0.1240 ca         1 891      -0.123000
     14 C26          7.1020    -0.4560    -0.0290 ca         1 891      -0.173000
     15 C27          5.9460    -0.9040     0.6300 ca         1 891       0.189000
     16 F28          5.9830    -2.0730     1.3120 f          1 891      -0.157000
     17 C21          4.7560    -0.1480     0.5790 ca         1 891       0.081100
     18 O20          3.6310    -0.5960     1.2420 os         1 891      -0.206200
     19 C9           2.0660    -0.7860    -0.7000 c          1 891       0.557200
     20 O18          2.9060    -1.2580    -1.4570 o          1 891      -0.513000
     21 C14         -0.9370     0.7680     1.9350 ca         1 891       0.209900
     22 N15         -2.1850     0.9620     1.4750 nb         1 891      -0.255000
     23 N17         -1.5010     0.1730    -0.6870 nb         1 891      -0.299000
     24 C22          0.3560    -0.8260    -2.5330 c3         1 891       0.080300
     25 N19         -3.6700     0.8320    -0.3310 nu         1 891      -0.928100
     26 S4          -6.5290    -0.7670     0.0130 s6         1 891       1.085000
     27 O6          -6.6400    -0.8920     1.4720 o          1 891      -0.508000
     28 O7          -5.6250    -1.6560    -0.7260 o          1 891      -0.508000
     29 H11          1.7160     0.2990     2.6410 ha         1 891       0.206000
     30 H1          -4.8780     1.1170     1.3900 h1         1 891       0.106700
     31 H2          -4.6810     3.3090    -0.7620 hc         1 891       0.048033
     32 H2A         -5.5790     3.4230     0.7680 hc         1 891       0.048033
     33 H2B         -3.8110     3.2970     0.7890 hc         1 891       0.048033
     34 H5          -8.1090    -0.7900    -1.7490 h1         1 891       0.104700
     35 H5A         -8.4830    -2.0070    -0.4680 h1         1 891       0.104700
     36 H5B         -8.8340    -0.2590    -0.1800 h1         1 891       0.104700
     37 H3          -6.9630     1.5290    -0.0330 h1         1 891       0.101200
     38 H3A         -6.0270     1.0220    -1.4650 h1         1 891       0.101200
     39 H24          5.8860     2.4630    -1.3300 ha         1 891       0.135000
     40 H23          3.8310     1.6780    -0.1560 ha         1 891       0.126000
     41 H26          8.0140    -1.0440     0.0090 ha         1 891       0.151000
     42 H14         -0.7550     1.0150     2.9800 h4         1 891       0.028100
     43 H22         -0.1120     0.0590    -2.9820 h1         1 891       0.061700
     44 H22A         1.2220    -1.0980    -3.1490 h1         1 891       0.061700
     45 H22B        -0.3600    -1.6570    -2.5530 h1         1 891       0.061700
     46 HN19        -3.7650     0.5750    -1.3120 hn         1 891       0.516000
     47 F29          8.1820     1.1880    -1.3700 f          1 891      -0.174000
@<TRIPOS>BOND
     1     1    22 ar  
     2     1    23 ar  
     3     1    25 1   
     4     2     3 1   
     5     2     4 ar  
     6     2    21 ar  
     7     3     5 2   
     8     3    29 1   
     9     4     9 1   
    10     4    23 ar  
    11     5    18 1   
    12     5    19 1   
    13     6     7 1   
    14     6    10 1   
    15     6    25 1   
    16     6    30 1   
    17     7    31 1   
    18     7    32 1   
    19     7    33 1   
    20     8    26 1   
    21     8    34 1   
    22     8    35 1   
    23     8    36 1   
    24     9    19 1   
    25     9    24 1   
    26    10    26 1   
    27    10    37 1   
    28    10    38 1   
    29    11    12 ar  
    30    11    14 ar  
    31    11    47 1   
    32    12    13 ar  
    33    12    39 1   
    34    13    17 ar  
    35    13    40 1   
    36    14    15 ar  
    37    14    41 1   
    38    15    16 1   
    39    15    17 ar  
    40    17    18 1   
    41    19    20 2   
    42    21    22 ar  
    43    21    42 1   
    44    24    43 1   
    45    24    44 1   
    46    24    45 1   
    47    25    46 1   
    48    26    27 2   
    49    26    28 2   
@<TRIPOS>SUBSTRUCTURE
     1 891         1 TEMP              0 ****  ****    0 ROOT
