@<TRIPOS>MOLECULE
892
   54    57     1     0     0
SMALL
No Charge or Current Charge


@<TRIPOS>ATOM
      1 Br22        -2.9270    -0.0380    -4.0370 br         1 892      -0.067100
      2 C13         -1.0650     0.4120    -3.9250 ca         1 892      -0.116900
      3 C14         -0.4950     1.3610    -4.7940 ca         1 892       0.225100
      4 O20         -1.2660     1.9830    -5.7340 oh         1 892      -0.500100
      5 C15          0.8770     1.6600    -4.6950 ca         1 892      -0.116900
      6 Br21         1.6950     2.9390    -5.8700 br         1 892      -0.067100
      7 C16          1.6710     1.0220    -3.7260 ca         1 892       0.015500
      8 C12         -0.2710    -0.2280    -2.9580 ca         1 892       0.015500
      9 C11          1.1020     0.0870    -2.8360 ca         1 892      -0.216600
     10 C03          1.9830    -0.5850    -1.8110 c          1 892       0.631900
     11 O19          3.1560    -0.8220    -2.0680 o          1 892      -0.518100
     12 C9           1.3300    -1.1160    -0.5940 cc         1 892      -0.260400
     13 C8           1.4880    -2.4070    -0.1020 cd         1 892       0.138900
     14 C17          2.4000    -3.5290    -0.5280 c3         1 892      -0.029200
     15 C18          3.7290    -3.5350     0.2510 c3         1 892      -0.086100
     16 C5           0.1860    -0.5890     0.1360 ca         1 892      -0.026800
     17 C6          -0.4430     0.6630     0.0920 ca         1 892      -0.081000
     18 C4          -0.2300    -1.5600     1.0160 ca         1 892       0.026100
     19 O7           0.5630    -2.6560     0.8830 os         1 892      -0.158200
     20 C3          -1.3050    -1.3780     1.8910 ca         1 892       0.020000
     21 C2          -1.9710    -0.1280     1.8540 ca         1 892      -0.298500
     22 C1          -1.5360     0.8870     0.9570 ca         1 892      -0.039000
     23 S01         -3.3450     0.1860     2.9660 sy         1 892       1.178600
     24 O01         -4.3230     1.0560     2.3090 o          1 892      -0.524000
     25 O02         -3.7320    -1.0330     3.6790 o          1 892      -0.524000
     26 N01         -2.7200     1.1940     4.1470 nu         1 892      -0.909100
     27 C02         -1.5290     1.0760     4.8470 ca         1 892       0.365000
     28 C01         -0.9740    -0.1710     5.1820 ca         1 892      -0.182000
     29 C04         -0.8690     2.2490     5.2410 ca         1 892      -0.182000
     30 C07          0.3440     2.1870     5.9470 ca         1 892       0.026000
     31 C06          0.9030     0.9360     6.2700 ca         1 892      -0.303500
     32 C05          0.2390    -0.2460     5.8870 ca         1 892       0.026000
     33 S02          2.4510     0.8550     7.1680 sy         1 892       1.130600
     34 O05          3.0140    -0.4900     7.0760 o          1 892      -0.545000
     35 O03          3.2380     2.0670     6.9420 o          1 892      -0.545000
     36 N02          1.9390     0.9610     8.7170 n8         1 892      -0.998100
     37 H20         -0.6870     2.5960    -6.2340 ho         1 892       0.491000
     38 H16          2.7300     1.2660    -3.6600 ha         1 892       0.147000
     39 H12         -0.7310    -0.9790    -2.3180 ha         1 892       0.147000
     40 H171         2.6100    -3.4620    -1.6020 hc         1 892       0.073200
     41 H172         1.8970    -4.4920    -0.3770 hc         1 892       0.073200
     42 H181         4.3660    -4.3640    -0.0800 hc         1 892       0.048700
     43 H182         4.2750    -2.5970     0.0910 hc         1 892       0.048700
     44 H183         3.5460    -3.6490     1.3270 hc         1 892       0.048700
     45 H6          -0.1000     1.4440    -0.5830 ha         1 892       0.134000
     46 H3          -1.6030    -2.1750     2.5690 ha         1 892       0.160000
     47 H1          -2.0380     1.8530     0.9360 ha         1 892       0.128000
     48 H01         -2.9900     2.1260     3.8660 hn         1 892       0.511000
     49 H2          -1.4760    -1.0910     4.9100 ha         1 892       0.131000
     50 H04         -1.2910     3.2190     4.9960 ha         1 892       0.131000
     51 H07          0.8430     3.1100     6.2400 ha         1 892       0.139500
     52 H05          0.6530    -1.2240     6.1330 ha         1 892       0.139500
     53 H021         2.4190     0.1670     9.1340 hn         1 892       0.472000
     54 H022         0.9730     0.6530     8.6480 hn         1 892       0.472000
@<TRIPOS>BOND
     1     1     2 1   
     2     2     3 ar  
     3     2     8 ar  
     4     3     4 1   
     5     3     5 ar  
     6     4    37 1   
     7     5     6 1   
     8     5     7 ar  
     9     7     9 ar  
    10     7    38 1   
    11     8     9 ar  
    12     8    39 1   
    13     9    10 1   
    14    10    11 2   
    15    10    12 1   
    16    12    13 2   
    17    12    16 1   
    18    13    14 1   
    19    13    19 1   
    20    14    15 1   
    21    14    40 1   
    22    14    41 1   
    23    15    42 1   
    24    15    43 1   
    25    15    44 1   
    26    16    17 ar  
    27    16    18 ar  
    28    17    22 ar  
    29    17    45 1   
    30    18    19 1   
    31    18    20 ar  
    32    20    21 ar  
    33    20    46 1   
    34    21    22 ar  
    35    21    23 1   
    36    22    47 1   
    37    23    24 2   
    38    23    25 2   
    39    23    26 1   
    40    26    27 1   
    41    26    48 1   
    42    27    28 ar  
    43    27    29 ar  
    44    28    32 ar  
    45    28    49 1   
    46    29    30 ar  
    47    29    50 1   
    48    30    31 ar  
    49    30    51 1   
    50    31    32 ar  
    51    31    33 1   
    52    32    52 1   
    53    33    34 2   
    54    33    35 2   
    55    33    36 1   
    56    36    53 1   
    57    36    54 1   
@<TRIPOS>SUBSTRUCTURE
     1 892         1 TEMP              0 ****  ****    0 ROOT
