@<TRIPOS>MOLECULE
892
   54    57     1     0     0
SMALL
abcg2


@<TRIPOS>ATOM
      1 BR22        -2.6740     0.4270    -4.4520 br         1 892      -0.067100
      2 C13         -0.8650     0.7170    -4.0400 ca         1 892      -0.116900
      3 C14         -0.1770     1.7320    -4.7160 ca         1 892       0.225100
      4 O20         -0.8490     2.4480    -5.6060 oh         1 892      -0.500100
      5 C15          1.1770     1.9120    -4.3980 ca         1 892      -0.116900
      6 BR21         2.1570     3.2630    -5.2740 br         1 892      -0.067100
      7 C16          1.8110     1.1210    -3.4610 ca         1 892       0.015500
      8 C12         -0.2450    -0.0660    -3.0870 ca         1 892       0.015500
      9 C11          1.0990     0.1340    -2.7850 ca         1 892      -0.216600
     10 C03          1.8090    -0.7300    -1.8120 c          1 892       0.631900
     11 O19          3.0040    -0.9280    -1.9120 o          1 892      -0.518100
     12 C9           1.0250    -1.3480    -0.7330 cc         1 892      -0.260400
     13 C8           1.2470    -2.5990    -0.2310 cd         1 892       0.138900
     14 C17          2.2200    -3.6600    -0.5750 c3         1 892      -0.029200
     15 C18          3.3980    -3.6950     0.4020 c3         1 892      -0.086100
     16 C5          -0.0530    -0.7900     0.0440 ca         1 892      -0.026800
     17 C6          -0.7310     0.4300     0.0960 ca         1 892      -0.081000
     18 C4          -0.3880    -1.7860     0.9610 ca         1 892       0.026100
     19 O7           0.3940    -2.8720     0.7740 os         1 892      -0.158200
     20 C3          -1.3730    -1.6610     1.9170 ca         1 892       0.020000
     21 C2          -2.0320    -0.4430     1.9310 ca         1 892      -0.298500
     22 C1          -1.7240     0.5930     1.0400 ca         1 892      -0.039000
     23 S01         -3.3090    -0.1660     3.1170 sy         1 892       1.178600
     24 O01         -4.4460     0.4620     2.4730 o          1 892      -0.524000
     25 O02         -3.4920    -1.3860     3.8810 o          1 892      -0.524000
     26 N01         -2.7090     1.0120     4.1250 nu         1 892      -0.909100
     27 C02         -1.4790     0.9820     4.7770 ca         1 892       0.365000
     28 C01         -0.8270    -0.2020     5.1180 ca         1 892      -0.182000
     29 C04         -0.8970     2.2080     5.1110 ca         1 892      -0.182000
     30 C07          0.3100     2.2540     5.7760 ca         1 892       0.026000
     31 C06          0.9600     1.0670     6.0960 ca         1 892      -0.303500
     32 C05          0.3980    -0.1540     5.7630 ca         1 892       0.026000
     33 S02          2.5080     1.1290     6.9380 sy         1 892       1.130600
     34 O05          3.1920    -0.1370     6.7080 o          1 892      -0.545000
     35 O03          3.2050     2.3600     6.5960 o          1 892      -0.545000
     36 N02          2.0120     1.3150     8.5050 n8         1 892      -0.998100
     37 H20         -0.3050     3.1240    -6.0330 ho         1 892       0.491000
     38 H16          2.8570     1.2770    -3.2370 ha         1 892       0.147000
     39 H12         -0.8050    -0.8500    -2.5950 ha         1 892       0.147000
     40 H171         2.5840    -3.4940    -1.5870 hc         1 892       0.073200
     41 H172         1.7050    -4.6230    -0.5730 hc         1 892       0.073200
     42 H181         4.0840    -4.4950     0.1250 hc         1 892       0.048700
     43 H182         3.9470    -2.7550     0.3810 hc         1 892       0.048700
     44 H183         3.0670    -3.8770     1.4240 hc         1 892       0.048700
     45 H6          -0.4970     1.2410    -0.5790 ha         1 892       0.134000
     46 H3          -1.6050    -2.4620     2.6060 ha         1 892       0.160000
     47 H1          -2.2600     1.5320     1.0840 ha         1 892       0.128000
     48 H01         -3.0850     1.9310     3.9220 hn         1 892       0.511000
     49 H2          -1.2580    -1.1690     4.9090 ha         1 892       0.131000
     50 H04         -1.3920     3.1330     4.8440 ha         1 892       0.131000
     51 H07          0.7410     3.2140     6.0260 ha         1 892       0.139500
     52 H05          0.8940    -1.0830     6.0090 ha         1 892       0.139500
     53 H021         2.7790     1.6180     9.1000 hn         1 892       0.472000
     54 H022         1.5960     0.4700     8.8840 hn         1 892       0.472000
@<TRIPOS>BOND
     1     1     2 1   
     2     2     3 ar  
     3     2     8 ar  
     4     3     4 1   
     5     3     5 ar  
     6     4    37 1   
     7     5     6 1   
     8     5     7 ar  
     9     7     9 ar  
    10     7    38 1   
    11     8     9 ar  
    12     8    39 1   
    13     9    10 1   
    14    10    11 2   
    15    10    12 1   
    16    12    13 2   
    17    12    16 1   
    18    13    14 1   
    19    13    19 1   
    20    14    15 1   
    21    14    40 1   
    22    14    41 1   
    23    15    42 1   
    24    15    43 1   
    25    15    44 1   
    26    16    17 ar  
    27    16    18 ar  
    28    17    22 ar  
    29    17    45 1   
    30    18    19 1   
    31    18    20 ar  
    32    20    21 ar  
    33    20    46 1   
    34    21    22 ar  
    35    21    23 1   
    36    22    47 1   
    37    23    24 2   
    38    23    25 2   
    39    23    26 1   
    40    26    27 1   
    41    26    48 1   
    42    27    28 ar  
    43    27    29 ar  
    44    28    32 ar  
    45    28    49 1   
    46    29    30 ar  
    47    29    50 1   
    48    30    31 ar  
    49    30    51 1   
    50    31    32 ar  
    51    31    33 1   
    52    32    52 1   
    53    33    34 2   
    54    33    35 2   
    55    33    36 1   
    56    36    53 1   
    57    36    54 1   
@<TRIPOS>SUBSTRUCTURE
     1 892         1 TEMP              0 ****  ****    0 ROOT
