@<TRIPOS>MOLECULE
893
   44    45     1     0     0
SMALL
bcc


@<TRIPOS>ATOM
      1 C1          -3.7960     0.6280    -1.2750 ca         1 893      -0.183000
      2 C2          -2.8520    -0.3720    -1.1030 ca         1 893       0.115100
      3 C3          -2.6840    -0.9470     0.1680 ca         1 893      -0.113300
      4 C4          -3.4620    -0.5040     1.2210 ca         1 893      -0.111000
      5 C5          -4.4170     0.5010     1.0500 ca         1 893       0.102100
      6 C6          -4.5760     1.0660    -0.2060 ca         1 893      -0.168000
      7 C9          -1.6640    -2.0290     0.3870 c3         1 893       0.165300
      8 N1          -0.3240    -1.4810     0.3200 ns         1 893      -0.541900
      9 C8           0.7670    -2.2370     0.4250 c          1 893       0.567600
     10 C14          2.0640    -1.4770     0.3350 ca         1 893       0.424800
     11 N16          1.9810    -0.1760     0.0660 nb         1 893      -0.777000
     12 C17          3.0780     0.5360    -0.0190 ca         1 893       0.696600
     13 C18          4.3530    -0.0370     0.1790 ca         1 893      -0.154300
     14 C19          4.4300    -1.3910     0.4590 ca         1 893      -0.031000
     15 C20          3.2620    -2.1360     0.5350 ca         1 893      -0.239300
     16 O22         -5.1220     0.8480     2.1500 os         1 893      -0.315900
     17 C23         -6.0850     1.8730     2.0260 c3         1 893       0.124700
     18 O27         -2.0560    -0.8520    -2.0820 os         1 893      -0.312900
     19 C28         -2.1960    -0.3190    -3.3820 c3         1 893       0.124700
     20 C34          5.5160     0.7730     0.0860 cg         1 893       0.248800
     21 N35          6.4650     1.4220     0.0100 n1         1 893      -0.354800
     22 O36          3.0340     1.8230    -0.2960 os         1 893      -0.431100
     23 C37          1.7620     2.4320    -0.5710 c3         1 893       0.150400
     24 C7           2.0140     3.8860    -0.8850 c3         1 893      -0.099100
     25 O1           0.7570    -3.4490     0.5890 o          1 893      -0.605100
     26 H1          -3.9490     1.0910    -2.2400 ha         1 893       0.136000
     27 H4          -3.3330    -0.9470     2.2020 ha         1 893       0.151000
     28 H6          -5.3010     1.8480    -0.3870 ha         1 893       0.136000
     29 H91         -1.7740    -2.8210    -0.3580 h1         1 893       0.061200
     30 H92         -1.8270    -2.4880     1.3640 h1         1 893       0.061200
     31 HN1         -0.1970    -0.4880     0.1960 hn         1 893       0.344500
     32 H19          5.3930    -1.8570     0.6150 ha         1 893       0.155000
     33 H20          3.2900    -3.1940     0.7470 ha         1 893       0.176000
     34 H231        -6.5360     1.9960     3.0090 h1         1 893       0.040367
     35 H232        -5.6370     2.8240     1.7240 h1         1 893       0.040367
     36 H233        -6.8710     1.6150     1.3110 h1         1 893       0.040367
     37 H281        -3.1990    -0.4830    -3.7850 h1         1 893       0.041033
     38 H282        -1.9770     0.7510    -3.4130 h1         1 893       0.041033
     39 H283        -1.4770    -0.8400    -4.0100 h1         1 893       0.041033
     40 H371         1.1060     2.3210     0.2940 h1         1 893       0.049200
     41 H372         1.2920     1.9230    -1.4150 h1         1 893       0.049200
     42 H71          2.6690     4.0010    -1.7480 hc         1 893       0.050700
     43 H72          1.0640     4.3670    -1.1190 hc         1 893       0.050700
     44 H73          2.4540     4.4100    -0.0380 hc         1 893       0.050700
@<TRIPOS>BOND
     1     1     2 ar  
     2     1     6 ar  
     3     1    26 1   
     4     2     3 ar  
     5     2    18 1   
     6     3     4 ar  
     7     3     7 1   
     8     4     5 ar  
     9     4    27 1   
    10     5     6 ar  
    11     5    16 1   
    12     6    28 1   
    13     7     8 1   
    14     7    29 1   
    15     7    30 1   
    16     8     9 1   
    17     8    31 1   
    18     9    10 1   
    19     9    25 2   
    20    10    11 ar  
    21    10    15 ar  
    22    11    12 ar  
    23    12    13 ar  
    24    12    22 1   
    25    13    14 ar  
    26    13    20 1   
    27    14    15 ar  
    28    14    32 1   
    29    15    33 1   
    30    16    17 1   
    31    17    34 1   
    32    17    35 1   
    33    17    36 1   
    34    18    19 1   
    35    19    37 1   
    36    19    38 1   
    37    19    39 1   
    38    20    21 3   
    39    22    23 1   
    40    23    24 1   
    41    23    40 1   
    42    23    41 1   
    43    24    42 1   
    44    24    43 1   
    45    24    44 1   
@<TRIPOS>SUBSTRUCTURE
     1 893         1 TEMP              0 ****  ****    0 ROOT
