@<TRIPOS>MOLECULE
893
   44    45     1     0     0
SMALL
No Charge or Current Charge


@<TRIPOS>ATOM
      1 C1          -4.0540     0.4590    -1.4260 ca         1 893      -0.165000
      2 C2          -3.0870    -0.5660    -1.3120 ca         1 893       0.115100
      3 C3          -2.7140    -1.0300    -0.0310 ca         1 893      -0.113300
      4 C4          -3.3050    -0.4630     1.1160 ca         1 893      -0.093000
      5 C5          -4.2650     0.5550     1.0030 ca         1 893       0.102100
      6 C6          -4.6410     1.0160    -0.2760 ca         1 893      -0.150000
      7 C9          -1.6710    -2.1280     0.1330 c3         1 893       0.165300
      8 N1          -0.3240    -1.5700     0.1810 ns         1 893      -0.474900
      9 C8           0.8270    -2.2900     0.4280 c          1 893       0.500600
     10 C14          2.1270    -1.4690     0.4070 ca         1 893       0.359500
     11 N16          2.0550    -0.1280     0.1540 nb         1 893      -0.777000
     12 C17          3.1960     0.6000     0.1340 ca         1 893       0.631300
     13 C18          4.4600     0.0260     0.3660 ca         1 893      -0.089000
     14 C19          4.5470    -1.3510     0.6280 ca         1 893      -0.013000
     15 C20          3.3630    -2.1020     0.6480 ca         1 893      -0.156000
     16 O22         -4.8050     1.0660     2.1670 os         1 893      -0.339100
     17 C23         -5.7940     2.1110     2.1600 c3         1 893       0.147900
     18 O27         -2.4860    -1.1310    -2.4210 os         1 893      -0.336100
     19 C28         -2.7950    -0.7140    -3.7640 c3         1 893       0.147900
     20 C34          5.6430     0.8310     0.3360 cg         1 893       0.338000
     21 N35          6.6190     1.4720     0.3150 n1         1 893      -0.444000
     22 O36          3.1130     1.9520    -0.1240 os         1 893      -0.454300
     23 C37          1.8480     2.5910    -0.3700 c3         1 893       0.173600
     24 C7           2.1260     4.0820    -0.6170 c3         1 893      -0.099100
     25 O1           0.7840    -3.4980     0.6450 o          1 893      -0.605100
     26 H1          -4.3620     0.8370    -2.3970 ha         1 893       0.118000
     27 H4          -3.0170    -0.8120     2.1050 ha         1 893       0.133000
     28 H6          -5.3810     1.8030    -0.3980 ha         1 893       0.118000
     29 H91         -1.7330    -2.8430    -0.6990 h1         1 893       0.061200
     30 H92         -1.8590    -2.6830     1.0620 h1         1 893       0.061200
     31 HN1         -0.1930    -0.5790     0.0050 hn         1 893       0.344500
     32 H19          5.5080    -1.8290     0.8120 ha         1 893       0.137000
     33 H20          3.3980    -3.1700     0.8470 ha         1 893       0.158000
     34 H231        -6.0840     2.3660     3.1870 h1         1 893       0.040367
     35 H232        -5.4000     3.0180     1.6840 h1         1 893       0.040367
     36 H233        -6.6950     1.7920     1.6220 h1         1 893       0.040367
     37 H281        -3.8570    -0.8760    -3.9880 h1         1 893       0.041033
     38 H282        -2.5610     0.3490    -3.9060 h1         1 893       0.041033
     39 H283        -2.2030    -1.2910    -4.4850 h1         1 893       0.041033
     40 H371         1.1780     2.4820     0.4940 h1         1 893       0.049200
     41 H372         1.3550     2.1600    -1.2510 h1         1 893       0.049200
     42 H71          2.7820     4.2130    -1.4850 hc         1 893       0.050700
     43 H72          1.1880     4.6150    -0.8100 hc         1 893       0.050700
     44 H73          2.6060     4.5350     0.2580 hc         1 893       0.050700
@<TRIPOS>BOND
     1     1     2 ar  
     2     1     6 ar  
     3     1    26 1   
     4     2     3 ar  
     5     2    18 1   
     6     3     4 ar  
     7     3     7 1   
     8     4     5 ar  
     9     4    27 1   
    10     5     6 ar  
    11     5    16 1   
    12     6    28 1   
    13     7     8 1   
    14     7    29 1   
    15     7    30 1   
    16     8     9 1   
    17     8    31 1   
    18     9    10 1   
    19     9    25 2   
    20    10    11 ar  
    21    10    15 ar  
    22    11    12 ar  
    23    12    13 ar  
    24    12    22 1   
    25    13    14 ar  
    26    13    20 1   
    27    14    15 ar  
    28    14    32 1   
    29    15    33 1   
    30    16    17 1   
    31    17    34 1   
    32    17    35 1   
    33    17    36 1   
    34    18    19 1   
    35    19    37 1   
    36    19    38 1   
    37    19    39 1   
    38    20    21 3   
    39    22    23 1   
    40    23    24 1   
    41    23    40 1   
    42    23    41 1   
    43    24    42 1   
    44    24    43 1   
    45    24    44 1   
@<TRIPOS>SUBSTRUCTURE
     1 893         1 TEMP              0 ****  ****    0 ROOT
