@<TRIPOS>MOLECULE
894
   52    54     1     0     0
SMALL
No Charge or Current Charge


@<TRIPOS>ATOM
      1 Cl1          9.6490    23.5820    44.4970 cl         1 894      -0.152000
      2 C1          10.0500    22.8190    46.0050 cc         1 894      -0.021000
      3 C2          11.2780    22.8390    46.6100 cd         1 894      -0.117000
      4 C3          11.3030    22.1230    47.8400 cd         1 894      -0.127000
      5 C4          10.0950    21.5570    48.1730 cc         1 894      -0.184300
      6 C9           9.7650    20.7410    49.3910 c3         1 894       0.037900
      7 S1           9.4450    18.1710    50.4940 s6         1 894       1.234100
      8 O2          10.1710    18.6650    51.6640 o          1 894      -0.536500
      9 O1           9.5690    16.7680    50.0960 o          1 894      -0.536500
     10 N1           7.8270    18.4280    50.8250 n7         1 894      -0.898300
     11 C12          6.8830    17.9230    49.7630 c5         1 894       0.151500
     12 C13          5.7550    17.1560    50.5060 c5         1 894      -0.092400
     13 C14          4.5980    17.1800    49.4650 c5         1 894       0.094000
     14 C15          6.0950    19.0120    48.9790 c          1 894       0.522000
     15 O3           6.4660    20.1180    48.6100 o          1 894      -0.565000
     16 N2           4.8020    18.5010    48.8340 n          1 894      -0.407800
     17 C16          3.7400    19.2680    48.1170 c3         1 894       0.043700
     18 C17          3.6370    18.7940    46.6480 c3         1 894      -0.095100
     19 C18          2.3580    19.2760    48.8510 c          1 894       0.592100
     20 O4           1.3260    18.9420    48.2760 o          1 894      -0.600100
     21 N3           2.3310    19.5560    50.2410 n          1 894      -0.409800
     22 C19          1.0430    19.3960    50.9940 c6         1 894       0.058500
     23 C20          1.1930    19.4530    52.5350 c6         1 894       0.133600
     24 O5           1.9730    20.5980    52.9230 os         1 894      -0.450000
     25 C22          3.3090    20.5550    52.3880 c6         1 894       0.133600
     26 C23          3.2730    20.5600    50.8390 c6         1 894       0.058500
     27 S6           8.8740    21.9090    46.9450 ss         1 894       0.222000
     28 C6           9.7720    19.2280    49.0770 c3         1 894      -0.340400
     29 H2          12.1410    23.3480    46.1930 ha         1 894       0.146000
     30 H3          12.1930    22.0330    48.4560 ha         1 894       0.136000
     31 H9C1         8.7860    21.0480    49.7800 hc         1 894       0.060200
     32 H9C2        10.4950    20.9580    50.1820 hc         1 894       0.060200
     33 H6C1        10.7650    18.9320    48.7240 h1         1 894       0.109200
     34 H6C2         9.0370    18.9760    48.3060 h1         1 894       0.109200
     35 H1           7.8030    19.4460    50.8430 hn         1 894       0.497000
     36 H12          7.3520    17.2660    49.0150 h1         1 894       0.103700
     37 H131         5.4520    17.6810    51.4200 hc         1 894       0.073700
     38 H132         6.0470    16.1400    50.7920 hc         1 894       0.073700
     39 H141         3.6140    17.0810    49.9430 h1         1 894       0.064700
     40 H142         4.7050    16.3780    48.7220 h1         1 894       0.064700
     41 H16          4.0390    20.3230    48.0920 h1         1 894       0.092700
     42 H171         3.3060    17.7490    46.5980 hc         1 894       0.054700
     43 H172         4.6120    18.8680    46.1520 hc         1 894       0.054700
     44 H173         2.9250    19.4110    46.0880 hc         1 894       0.054700
     45 H191         0.5790    18.4370    50.7250 h1         1 894       0.071700
     46 H192         0.3500    20.1890    50.6780 h1         1 894       0.071700
     47 H231         2.9740    21.5630    50.5010 h1         1 894       0.071700
     48 H232         4.2970    20.3980    50.4820 h1         1 894       0.071700
     49 H201         1.6860    18.5390    52.8980 h1         1 894       0.053200
     50 H202         0.2010    19.5140    53.0060 h1         1 894       0.053200
     51 H221         3.8740    21.4240    52.7540 h1         1 894       0.053200
     52 H222         3.8140    19.6460    52.7480 h1         1 894       0.053200
@<TRIPOS>BOND
     1     1     2 1   
     2     2     3 2   
     3     2    27 1   
     4     3     4 1   
     5     3    29 1   
     6     4     5 2   
     7     4    30 1   
     8     5     6 1   
     9     5    27 1   
    10     6    28 1   
    11     6    31 1   
    12     6    32 1   
    13     7     8 2   
    14     7     9 2   
    15     7    10 1   
    16     7    28 1   
    17    10    11 1   
    18    10    35 1   
    19    11    12 1   
    20    11    14 1   
    21    11    36 1   
    22    12    13 1   
    23    12    37 1   
    24    12    38 1   
    25    13    16 1   
    26    13    39 1   
    27    13    40 1   
    28    14    15 2   
    29    14    16 1   
    30    16    17 1   
    31    17    18 1   
    32    17    19 1   
    33    17    41 1   
    34    18    42 1   
    35    18    43 1   
    36    18    44 1   
    37    19    20 2   
    38    19    21 1   
    39    21    22 1   
    40    21    26 1   
    41    22    23 1   
    42    22    45 1   
    43    22    46 1   
    44    23    24 1   
    45    23    49 1   
    46    23    50 1   
    47    24    25 1   
    48    25    26 1   
    49    25    51 1   
    50    25    52 1   
    51    26    47 1   
    52    26    48 1   
    53    28    33 1   
    54    28    34 1   
@<TRIPOS>SUBSTRUCTURE
     1 894         1 TEMP              0 ****  ****    0 ROOT
