@<TRIPOS>MOLECULE
894
   52    54     1     0     0
SMALL
abcg2


@<TRIPOS>ATOM
      1 CL1          8.6270    25.0480    46.2420 cl         1 894      -0.152000
      2 C1           9.2020    23.6620    47.0940 cc         1 894      -0.021000
      3 C2          10.3150    22.9290    46.8150 cd         1 894      -0.117000
      4 C3          10.4790    21.8490    47.7290 cd         1 894      -0.127000
      5 C4           9.5010    21.7790    48.6820 cc         1 894      -0.184300
      6 C9           9.3350    20.8040    49.8100 c3         1 894       0.037900
      7 S1           9.3230    18.1610    50.6250 s6         1 894       1.234100
      8 O2           9.8810    18.6110    51.8800 o          1 894      -0.536500
      9 O1           9.7220    16.8800    50.0870 o          1 894      -0.536500
     10 N1           7.7070    18.1070    50.8500 n7         1 894      -0.898300
     11 C12          6.7980    17.5550    49.8620 c5         1 894       0.151500
     12 C13          5.6500    16.7420    50.4630 c5         1 894      -0.092400
     13 C14          4.5240    16.9060    49.4380 c5         1 894       0.094000
     14 C15          6.0810    18.6190    49.0220 c          1 894       0.522000
     15 O3           6.5820    19.6570    48.6020 o          1 894      -0.565000
     16 N2           4.8110    18.2120    48.8390 n          1 894      -0.407800
     17 C16          3.8630    18.9220    47.9900 c3         1 894       0.043700
     18 C17          3.5830    18.1710    46.6950 c3         1 894      -0.095100
     19 C18          2.5730    19.1750    48.7970 c          1 894       0.592100
     20 O4           1.5430    18.5560    48.5270 o          1 894      -0.600100
     21 N3           2.6400    20.0640    49.8120 n          1 894      -0.409800
     22 C19          1.5120    20.2370    50.7260 c6         1 894       0.058500
     23 C20          1.9650    19.9270    52.1450 c6         1 894       0.133600
     24 O5           3.0800    20.7320    52.5240 os         1 894      -0.450000
     25 C22          4.1830    20.5380    51.6420 c6         1 894       0.133600
     26 C23          3.8000    20.8620    50.2040 c6         1 894       0.058500
     27 S6           8.3470    23.0550    48.4680 ss         1 894       0.222000
     28 C6           9.6760    19.3840    49.3680 c3         1 894      -0.340400
     29 H2          10.9820    23.1470    45.9930 ha         1 894       0.146000
     30 H3          11.3020    21.1500    47.6730 ha         1 894       0.136000
     31 H9C1         8.3070    20.8380    50.1680 hc         1 894       0.060200
     32 H9C2         9.9770    21.0870    50.6480 hc         1 894       0.060200
     33 H6C1        10.7380    19.2660    49.1510 h1         1 894       0.109200
     34 H6C2         9.0970    19.0850    48.4960 h1         1 894       0.109200
     35 H1           7.3470    18.8540    51.4320 hn         1 894       0.497000
     36 H12          7.3820    16.9440    49.1720 h1         1 894       0.103700
     37 H131         5.3560    17.2000    51.4080 hc         1 894       0.073700
     38 H132         5.9140    15.7030    50.6440 hc         1 894       0.073700
     39 H141         3.5350    16.9020    49.8930 h1         1 894       0.064700
     40 H142         4.5540    16.1260    48.6720 h1         1 894       0.064700
     41 H16          4.3350    19.8720    47.7460 h1         1 894       0.092700
     42 H171         3.1220    17.2030    46.8840 hc         1 894       0.054700
     43 H172         4.5200    18.0210    46.1570 hc         1 894       0.054700
     44 H173         2.9080    18.7540    46.0680 hc         1 894       0.054700
     45 H191         0.7080    19.5720    50.4260 h1         1 894       0.071700
     46 H192         1.1610    21.2710    50.6640 h1         1 894       0.071700
     47 H231         3.5230    21.9190    50.1370 h1         1 894       0.071700
     48 H232         4.6460    20.6950    49.5470 h1         1 894       0.071700
     49 H201         2.2330    18.8650    52.2210 h1         1 894       0.053200
     50 H202         1.1660    20.1440    52.8540 h1         1 894       0.053200
     51 H221         4.9790    21.2020    51.9790 h1         1 894       0.053200
     52 H222         4.5320    19.5010    51.7100 h1         1 894       0.053200
@<TRIPOS>BOND
     1     1     2 1   
     2     2     3 2   
     3     2    27 1   
     4     3     4 1   
     5     3    29 1   
     6     4     5 2   
     7     4    30 1   
     8     5     6 1   
     9     5    27 1   
    10     6    28 1   
    11     6    31 1   
    12     6    32 1   
    13     7     8 2   
    14     7     9 2   
    15     7    10 1   
    16     7    28 1   
    17    10    11 1   
    18    10    35 1   
    19    11    12 1   
    20    11    14 1   
    21    11    36 1   
    22    12    13 1   
    23    12    37 1   
    24    12    38 1   
    25    13    16 1   
    26    13    39 1   
    27    13    40 1   
    28    14    15 2   
    29    14    16 1   
    30    16    17 1   
    31    17    18 1   
    32    17    19 1   
    33    17    41 1   
    34    18    42 1   
    35    18    43 1   
    36    18    44 1   
    37    19    20 2   
    38    19    21 1   
    39    21    22 1   
    40    21    26 1   
    41    22    23 1   
    42    22    45 1   
    43    22    46 1   
    44    23    24 1   
    45    23    49 1   
    46    23    50 1   
    47    24    25 1   
    48    25    26 1   
    49    25    51 1   
    50    25    52 1   
    51    26    47 1   
    52    26    48 1   
    53    28    33 1   
    54    28    34 1   
@<TRIPOS>SUBSTRUCTURE
     1 894         1 TEMP              0 ****  ****    0 ROOT
