@<TRIPOS>MOLECULE
895
   50    52     1     0     0
SMALL
No Charge or Current Charge


@<TRIPOS>ATOM
      1 Cl1         -3.4770    -5.7690    -7.2190 cl         1 895      -0.131000
      2 C1          -3.4290    -5.5060    -5.5030 cc         1 895      -0.025000
      3 C2          -3.5560    -4.2960    -4.8760 cd         1 895      -0.133000
      4 C3          -3.4740    -4.3940    -3.4600 cd         1 895      -0.079000
      5 C4          -3.2790    -5.6770    -3.0000 cc         1 895      -0.229800
      6 C9          -3.1330    -6.1420    -1.6260 ce         1 895       0.030800
      7 S1          -2.8570    -5.8820     1.1120 sy         1 895       1.161200
      8 O2          -3.0980    -4.7700     2.0320 o          1 895      -0.533000
      9 O1          -3.4590    -7.2030     1.2960 o          1 895      -0.533000
     10 N1          -1.2130    -6.1410     1.0970 n7         1 895      -0.891300
     11 C12         -0.2640    -5.0080     1.3860 c5         1 895       0.155500
     12 C13          1.1650    -5.6020     1.2390 c5         1 895      -0.100400
     13 C14          1.4590    -5.4360    -0.2820 c5         1 895       0.094000
     14 C15         -0.2700    -3.8520     0.3400 c          1 895       0.540000
     15 O3          -0.9750    -2.8510     0.3000 o          1 895      -0.525000
     16 N2           0.6920    -4.2200    -0.6170 n          1 895      -0.403800
     17 C16          1.0120    -3.3530    -1.7880 c3         1 895       0.053700
     18 C17         -0.1480    -3.3830    -2.8170 c3         1 895      -0.099100
     19 C18          1.5350    -1.9120    -1.4460 c          1 895       0.588100
     20 O4           1.6330    -1.5250    -0.2860 o          1 895      -0.577100
     21 N3           1.8640    -1.0270    -2.5070 n          1 895      -0.417800
     22 C19          2.4600    -1.4940    -3.7990 c6         1 895       0.061000
     23 C20          3.9540    -1.0850    -3.9180 c6         1 895       0.135100
     24 O5           4.1010     0.3370    -3.7060 os         1 895      -0.441000
     25 C22          3.6270     0.7700    -2.4110 c6         1 895       0.135100
     26 C23          2.1230     0.4250    -2.2600 c6         1 895       0.061000
     27 S6          -3.2120    -6.8170    -4.3510 ss         1 895       0.271000
     28 C6          -3.0560    -5.3370    -0.5310 cf         1 895      -0.453100
     29 H2          -3.7030    -3.3610    -5.4060 ha         1 895       0.151000
     30 H3          -3.5530    -3.5300    -2.8060 ha         1 895       0.150000
     31 H1          -1.0940    -6.4230     0.1260 hn         1 895       0.481000
     32 H12         -0.4220    -4.5800     2.3860 h1         1 895       0.124700
     33 H131         1.2520    -6.6390     1.5840 hc         1 895       0.075700
     34 H132         1.8780    -5.0110     1.8250 hc         1 895       0.075700
     35 H141         2.5320    -5.3190    -0.4810 h1         1 895       0.048200
     36 H142         1.0900    -6.2920    -0.8620 h1         1 895       0.048200
     37 H16          1.8610    -3.8380    -2.2830 h1         1 895       0.056700
     38 H171        -1.0280    -2.8630    -2.4240 hc         1 895       0.055033
     39 H172         0.1260    -2.9060    -3.7640 hc         1 895       0.055033
     40 H173        -0.4340    -4.4180    -3.0380 hc         1 895       0.055033
     41 H191         1.8980    -1.0500    -4.6320 h1         1 895       0.062450
     42 H192         2.3930    -2.5830    -3.9080 h1         1 895       0.062450
     43 H231         1.7770     0.7240    -1.2610 h1         1 895       0.062450
     44 H232         1.5460     1.0160    -2.9860 h1         1 895       0.062450
     45 H201         4.5530    -1.6270    -3.1720 h1         1 895       0.054200
     46 H202         4.3350    -1.3420    -4.9160 h1         1 895       0.054200
     47 H221         3.7750     1.8550    -2.3170 h1         1 895       0.054200
     48 H222         4.2100     0.2730    -1.6230 h1         1 895       0.054200
     49 H6          -3.1130    -4.2500    -0.5830 h4         1 895       0.243000
     50 H9          -3.0720    -7.2290    -1.5010 ha         1 895       0.200000
@<TRIPOS>BOND
     1     1     2 1   
     2     2     3 2   
     3     2    27 1   
     4     3     4 1   
     5     3    29 1   
     6     4     5 2   
     7     4    30 1   
     8     5     6 1   
     9     5    27 1   
    10     6    28 2   
    11     6    50 1   
    12     7     8 2   
    13     7     9 2   
    14     7    10 1   
    15     7    28 1   
    16    10    11 1   
    17    10    31 1   
    18    11    12 1   
    19    11    14 1   
    20    11    32 1   
    21    12    13 1   
    22    12    33 1   
    23    12    34 1   
    24    13    16 1   
    25    13    35 1   
    26    13    36 1   
    27    14    15 2   
    28    14    16 1   
    29    16    17 1   
    30    17    18 1   
    31    17    19 1   
    32    17    37 1   
    33    18    38 1   
    34    18    39 1   
    35    18    40 1   
    36    19    20 2   
    37    19    21 1   
    38    21    22 1   
    39    21    26 1   
    40    22    23 1   
    41    22    41 1   
    42    22    42 1   
    43    23    24 1   
    44    23    45 1   
    45    23    46 1   
    46    24    25 1   
    47    25    26 1   
    48    25    47 1   
    49    25    48 1   
    50    26    43 1   
    51    26    44 1   
    52    28    49 1   
@<TRIPOS>SUBSTRUCTURE
     1 895         1 TEMP              0 ****  ****    0 ROOT
