@<TRIPOS>MOLECULE
895
   50    52     1     0     0
SMALL
abcg2


@<TRIPOS>ATOM
      1 CL1         -4.9820    -6.0820    -7.1050 cl         1 895      -0.131000
      2 C1          -4.4800    -5.7560    -5.5100 cc         1 895      -0.025000
      3 C2          -4.2730    -4.5290    -4.9530 cd         1 895      -0.133000
      4 C3          -3.8590    -4.6300    -3.6080 cd         1 895      -0.079000
      5 C4          -3.7570    -5.9240    -3.1640 cc         1 895      -0.229800
      6 C9          -3.3670    -6.4310    -1.8690 ce         1 895       0.030800
      7 S1          -2.5390    -6.3500     0.6970 sy         1 895       1.161200
      8 O2          -3.1620    -5.5860     1.7650 o          1 895      -0.533000
      9 O1          -2.7250    -7.7900     0.6250 o          1 895      -0.533000
     10 N1          -0.9150    -6.1150     0.8420 n7         1 895      -0.891300
     11 C12         -0.3220    -4.8500     1.2660 c5         1 895       0.155500
     12 C13          1.1810    -5.0140     1.4360 c5         1 895      -0.100400
     13 C14          1.7420    -4.7120     0.0470 c5         1 895       0.094000
     14 C15         -0.4110    -3.7910     0.1620 c          1 895       0.540000
     15 O3          -1.3770    -3.0770    -0.0430 o          1 895      -0.525000
     16 N2           0.7250    -3.8630    -0.5530 n          1 895      -0.403800
     17 C16          1.0290    -3.1290    -1.7570 c3         1 895       0.053700
     18 C17         -0.1310    -3.0670    -2.7530 c3         1 895      -0.099100
     19 C18          1.5260    -1.7220    -1.3880 c          1 895       0.588100
     20 O4           1.2600    -1.2540    -0.2930 o          1 895      -0.577100
     21 N3           2.2190    -1.0390    -2.3230 n          1 895      -0.417800
     22 C19          2.6410    -1.5290    -3.6240 c6         1 895       0.061000
     23 C20          4.1240    -1.2560    -3.8230 c6         1 895       0.135100
     24 O5           4.4350     0.1060    -3.6470 os         1 895      -0.441000
     25 C22          4.0700     0.5470    -2.3580 c6         1 895       0.135100
     26 C23          2.5870     0.3510    -2.1020 c6         1 895       0.061000
     27 S6          -4.1770    -7.0380    -4.4180 ss         1 895       0.271000
     28 C6          -3.0430    -5.6570    -0.8310 cf         1 895      -0.453100
     29 H2          -4.4130    -3.5970    -5.4810 ha         1 895       0.151000
     30 H3          -3.6470    -3.7680    -2.9920 ha         1 895       0.150000
     31 H1          -0.3810    -6.6520     0.1670 hn         1 895       0.481000
     32 H12         -0.8190    -4.5160     2.1740 h1         1 895       0.124700
     33 H131         1.4680    -5.9960     1.8070 hc         1 895       0.075700
     34 H132         1.5350    -4.2680     2.1470 hc         1 895       0.075700
     35 H141         2.6970    -4.1880     0.1000 h1         1 895       0.048200
     36 H142         1.8940    -5.6130    -0.5540 h1         1 895       0.048200
     37 H16          1.8350    -3.6920    -2.2330 h1         1 895       0.056700
     38 H171        -0.9410    -2.4320    -2.4090 hc         1 895       0.055033
     39 H172         0.2150    -2.6850    -3.7120 hc         1 895       0.055033
     40 H173        -0.5220    -4.0690    -2.9250 hc         1 895       0.055033
     41 H191         2.0590    -1.0360    -4.4090 h1         1 895       0.062450
     42 H192         2.4810    -2.5990    -3.7240 h1         1 895       0.062450
     43 H231         2.3480     0.6420    -1.0830 h1         1 895       0.062450
     44 H232         2.0040     0.9860    -2.7790 h1         1 895       0.062450
     45 H201         4.7010    -1.8790    -3.1250 h1         1 895       0.054200
     46 H202         4.4100    -1.5320    -4.8380 h1         1 895       0.054200
     47 H221         4.3180     1.6070    -2.2910 h1         1 895       0.054200
     48 H222         4.6460     0.0140    -1.5890 h1         1 895       0.054200
     49 H6          -3.0370    -4.5750    -0.8560 h4         1 895       0.243000
     50 H9          -3.3390    -7.5100    -1.7560 ha         1 895       0.200000
@<TRIPOS>BOND
     1     1     2 1   
     2     2     3 2   
     3     2    27 1   
     4     3     4 1   
     5     3    29 1   
     6     4     5 2   
     7     4    30 1   
     8     5     6 1   
     9     5    27 1   
    10     6    28 2   
    11     6    50 1   
    12     7     8 2   
    13     7     9 2   
    14     7    10 1   
    15     7    28 1   
    16    10    11 1   
    17    10    31 1   
    18    11    12 1   
    19    11    14 1   
    20    11    32 1   
    21    12    13 1   
    22    12    33 1   
    23    12    34 1   
    24    13    16 1   
    25    13    35 1   
    26    13    36 1   
    27    14    15 2   
    28    14    16 1   
    29    16    17 1   
    30    17    18 1   
    31    17    19 1   
    32    17    37 1   
    33    18    38 1   
    34    18    39 1   
    35    18    40 1   
    36    19    20 2   
    37    19    21 1   
    38    21    22 1   
    39    21    26 1   
    40    22    23 1   
    41    22    41 1   
    42    22    42 1   
    43    23    24 1   
    44    23    45 1   
    45    23    46 1   
    46    24    25 1   
    47    25    26 1   
    48    25    47 1   
    49    25    48 1   
    50    26    43 1   
    51    26    44 1   
    52    28    49 1   
@<TRIPOS>SUBSTRUCTURE
     1 895         1 TEMP              0 ****  ****    0 ROOT
