@<TRIPOS>MOLECULE
896
   55    56     1     0     0
SMALL
No Charge or Current Charge


@<TRIPOS>ATOM
      1 O2           3.6530    -4.8370     1.5460 o          1 896      -0.593100
      2 C21          4.0500    -4.0030     0.7390 c          1 896       0.609700
      3 N2           3.9340    -4.2240    -0.6600 n          1 896      -0.408800
      4 C6           3.0910    -5.3520    -1.1460 c3         1 896       0.099000
      5 C5           1.6470    -4.9140    -1.4400 c3         1 896      -0.108100
      6 C22          5.0050    -3.7330    -1.5790 c3         1 896       0.117700
      7 C24          4.4410    -3.1960    -2.9130 c3         1 896      -0.105100
      8 C23          6.0980    -4.7990    -1.8220 c3         1 896      -0.105100
      9 C17          4.5600    -2.6590     1.2290 ca         1 896      -0.098600
     10 C16          4.3000    -1.4620     0.5200 ca         1 896      -0.185000
     11 C14          4.7680    -0.2230     1.0060 ca         1 896       0.138100
     12 C15          5.4790    -0.1760     2.2140 ca         1 896      -0.132000
     13 C19          5.7220    -1.3500     2.9470 ca         1 896      -0.043300
     14 C20          6.4800    -1.2890     4.2650 c3         1 896      -0.049800
     15 C18          5.2540    -2.5830     2.4560 ca         1 896      -0.108000
     16 O3           4.5520     0.9650     0.3380 os         1 896      -0.338100
     17 C1           3.8640     1.0200    -0.9300 c3         1 896       0.152600
     18 C7           3.8130     2.4970    -1.4210 c3         1 896       0.237500
     19 C8           3.0510     2.6110    -2.7580 c3         1 896      -0.122100
     20 N3           5.1730     3.0650    -1.5800 nu         1 896      -0.963200
     21 C9           5.5410     4.4010    -1.7060 ca         1 896       0.376000
     22 C10          6.8700     4.7120    -1.9870 ca         1 896      -0.255500
     23 C11          7.2410     6.0550    -2.1090 ca         1 896       0.371900
     24 N4           6.3660     7.0730    -1.9620 nb         1 896      -0.703000
     25 C12          5.0810     6.7630    -1.6840 ca         1 896       0.371900
     26 C13          4.6290     5.4470    -1.5470 ca         1 896      -0.255500
     27 H6C1         3.5140    -5.7690    -2.0670 h1         1 896       0.050200
     28 H6C2         3.0810    -6.1670    -0.4110 h1         1 896       0.050200
     29 H22          5.5260    -2.8940    -1.1060 h1         1 896       0.065700
     30 H5C1         1.1700    -4.5240    -0.5330 hc         1 896       0.041033
     31 H5C2         1.6270    -4.1300    -2.2070 hc         1 896       0.041033
     32 H5C3         1.0570    -5.7650    -1.8010 hc         1 896       0.041033
     33 H241         5.2400    -2.7410    -3.5110 hc         1 896       0.041200
     34 H242         3.9870    -3.9960    -3.5100 hc         1 896       0.041200
     35 H243         3.6800    -2.4290    -2.7290 hc         1 896       0.041200
     36 H231         6.4990    -5.1610    -0.8680 hc         1 896       0.041200
     37 H232         6.9290    -4.3700    -2.3950 hc         1 896       0.041200
     38 H233         5.7120    -5.6580    -2.3820 hc         1 896       0.041200
     39 H16          3.7200    -1.5100    -0.3960 ha         1 896       0.121000
     40 H18          5.4390    -3.4910     3.0260 ha         1 896       0.127000
     41 H15          5.8350     0.7820     2.5850 ha         1 896       0.130000
     42 H201         7.1760    -0.4420     4.2880 hc         1 896       0.046700
     43 H202         5.7870    -1.1770     5.1070 hc         1 896       0.046700
     44 H203         7.0660    -2.2010     4.4310 hc         1 896       0.046700
     45 H1C1         2.8390     0.6430    -0.8250 h1         1 896       0.040200
     46 H1C2         4.3830     0.4060    -1.6780 h1         1 896       0.040200
     47 H7           3.2620     3.0650    -0.6580 h1         1 896       0.078700
     48 H8C1         2.0350     2.2130    -2.6550 hc         1 896       0.047367
     49 H8C2         3.5620     2.0460    -3.5470 hc         1 896       0.047367
     50 H8C3         2.9710     3.6550    -3.0810 hc         1 896       0.047367
     51 H3           5.9460     2.3990    -1.5660 hn         1 896       0.485000
     52 H10          7.6130     3.9320    -2.1150 ha         1 896       0.117500
     53 H13          3.5860     5.2620    -1.3170 ha         1 896       0.117500
     54 H11          8.2720     6.3290    -2.3310 h4         1 896       0.011600
     55 H12          4.3940     7.6010    -1.5670 h4         1 896       0.011600
@<TRIPOS>BOND
     1     1     2 2   
     2     2     3 1   
     3     2     9 1   
     4     3     4 1   
     5     3     6 1   
     6     4     5 1   
     7     4    27 1   
     8     4    28 1   
     9     5    30 1   
    10     5    31 1   
    11     5    32 1   
    12     6     7 1   
    13     6     8 1   
    14     6    29 1   
    15     7    33 1   
    16     7    34 1   
    17     7    35 1   
    18     8    36 1   
    19     8    37 1   
    20     8    38 1   
    21     9    10 ar  
    22     9    15 ar  
    23    10    11 ar  
    24    10    39 1   
    25    11    12 ar  
    26    11    16 1   
    27    12    13 ar  
    28    12    41 1   
    29    13    14 1   
    30    13    15 ar  
    31    14    42 1   
    32    14    43 1   
    33    14    44 1   
    34    15    40 1   
    35    16    17 1   
    36    17    18 1   
    37    17    45 1   
    38    17    46 1   
    39    18    19 1   
    40    18    20 1   
    41    18    47 1   
    42    19    48 1   
    43    19    49 1   
    44    19    50 1   
    45    20    21 1   
    46    20    51 1   
    47    21    22 ar  
    48    21    26 ar  
    49    22    23 ar  
    50    22    52 1   
    51    23    24 ar  
    52    23    54 1   
    53    24    25 ar  
    54    25    26 ar  
    55    25    55 1   
    56    26    53 1   
@<TRIPOS>SUBSTRUCTURE
     1 896         1 TEMP              0 ****  ****    0 ROOT
