@<TRIPOS>MOLECULE
896
   55    56     1     0     0
SMALL
abcg2


@<TRIPOS>ATOM
      1 O2           2.9520    -4.3170     1.4280 o          1 896      -0.593100
      2 C21          3.7230    -3.7700     0.6480 c          1 896       0.609700
      3 N2           3.9730    -4.2490    -0.5860 n          1 896      -0.408800
      4 C6           3.1950    -5.3990    -1.0350 c3         1 896       0.099000
      5 C5           1.7870    -5.0290    -1.4740 c3         1 896      -0.108100
      6 C22          5.0810    -3.7960    -1.4310 c3         1 896       0.117700
      7 C24          4.5950    -3.3500    -2.8040 c3         1 896      -0.105100
      8 C23          6.1780    -4.8520    -1.5220 c3         1 896      -0.105100
      9 C17          4.3880    -2.4930     1.0700 ca         1 896      -0.098600
     10 C16          4.1110    -1.3110     0.3850 ca         1 896      -0.185000
     11 C14          4.6610    -0.1200     0.8420 ca         1 896       0.138100
     12 C15          5.4830    -0.1220     1.9710 ca         1 896      -0.132000
     13 C19          5.7530    -1.2960     2.6560 ca         1 896      -0.043300
     14 C20          6.6230    -1.2870     3.8790 c3         1 896      -0.049800
     15 C18          5.1870    -2.4890     2.2010 ca         1 896      -0.108000
     16 O3           4.4610     1.0780     0.2600 os         1 896      -0.338100
     17 C1           3.7470     1.1390    -0.9580 c3         1 896       0.152600
     18 C7           3.7490     2.5780    -1.4420 c3         1 896       0.237500
     19 C8           2.8970     2.7080    -2.7010 c3         1 896      -0.122100
     20 N3           5.1130     3.0120    -1.6470 nu         1 896      -0.963200
     21 C9           5.5220     4.3010    -1.6530 ca         1 896       0.376000
     22 C10          6.8510     4.6230    -1.9850 ca         1 896      -0.255500
     23 C11          7.2580     5.9390    -1.9560 ca         1 896       0.371900
     24 N4           6.4730     6.9680    -1.6310 nb         1 896      -0.703000
     25 C12          5.2170     6.6610    -1.3240 ca         1 896       0.371900
     26 C13          4.6900     5.3830    -1.3190 ca         1 896      -0.255500
     27 H6C1         3.7240    -5.8590    -1.8690 h1         1 896       0.050200
     28 H6C2         3.1600    -6.1510    -0.2450 h1         1 896       0.050200
     29 H22          5.5200    -2.9290    -0.9430 h1         1 896       0.065700
     30 H5C1         1.2130    -4.5940    -0.6570 hc         1 896       0.041033
     31 H5C2         1.8030    -4.3160    -2.2980 hc         1 896       0.041033
     32 H5C3         1.2590    -5.9210    -1.8150 hc         1 896       0.041033
     33 H241         5.4310    -2.9540    -3.3800 hc         1 896       0.041200
     34 H242         4.1650    -4.1750    -3.3760 hc         1 896       0.041200
     35 H243         3.8410    -2.5660    -2.7200 hc         1 896       0.041200
     36 H231         6.5130    -5.1530    -0.5300 hc         1 896       0.041200
     37 H232         7.0360    -4.4450    -2.0580 hc         1 896       0.041200
     38 H233         5.8550    -5.7450    -2.0590 hc         1 896       0.041200
     39 H16          3.4690    -1.3380    -0.4860 ha         1 896       0.121000
     40 H18          5.3860    -3.4150     2.7270 ha         1 896       0.127000
     41 H15          5.9140     0.8140     2.3070 ha         1 896       0.130000
     42 H201         7.2340    -0.3870     3.9280 hc         1 896       0.046700
     43 H202         6.0170    -1.3230     4.7870 hc         1 896       0.046700
     44 H203         7.2860    -2.1510     3.9000 hc         1 896       0.046700
     45 H1C1         2.7110     0.8100    -0.8230 h1         1 896       0.040200
     46 H1C2         4.2070     0.4860    -1.7110 h1         1 896       0.040200
     47 H7           3.3090     3.1910    -0.6510 h1         1 896       0.078700
     48 H8C1         1.8640     2.4140    -2.5080 hc         1 896       0.047367
     49 H8C2         3.2870     2.0800    -3.5030 hc         1 896       0.047367
     50 H8C3         2.8890     3.7390    -3.0550 hc         1 896       0.047367
     51 H3           5.7510     2.3370    -2.0390 hn         1 896       0.485000
     52 H10          7.5550     3.8460    -2.2570 ha         1 896       0.117500
     53 H13          3.6480     5.2470    -1.0650 ha         1 896       0.117500
     54 H11          8.2850     6.1780    -2.2110 h4         1 896       0.011600
     55 H12          4.5680     7.4910    -1.0630 h4         1 896       0.011600
@<TRIPOS>BOND
     1     1     2 2   
     2     2     3 1   
     3     2     9 1   
     4     3     4 1   
     5     3     6 1   
     6     4     5 1   
     7     4    27 1   
     8     4    28 1   
     9     5    30 1   
    10     5    31 1   
    11     5    32 1   
    12     6     7 1   
    13     6     8 1   
    14     6    29 1   
    15     7    33 1   
    16     7    34 1   
    17     7    35 1   
    18     8    36 1   
    19     8    37 1   
    20     8    38 1   
    21     9    10 ar  
    22     9    15 ar  
    23    10    11 ar  
    24    10    39 1   
    25    11    12 ar  
    26    11    16 1   
    27    12    13 ar  
    28    12    41 1   
    29    13    14 1   
    30    13    15 ar  
    31    14    42 1   
    32    14    43 1   
    33    14    44 1   
    34    15    40 1   
    35    16    17 1   
    36    17    18 1   
    37    17    45 1   
    38    17    46 1   
    39    18    19 1   
    40    18    20 1   
    41    18    47 1   
    42    19    48 1   
    43    19    49 1   
    44    19    50 1   
    45    20    21 1   
    46    20    51 1   
    47    21    22 ar  
    48    21    26 ar  
    49    22    23 ar  
    50    22    52 1   
    51    23    24 ar  
    52    23    54 1   
    53    24    25 ar  
    54    25    26 ar  
    55    25    55 1   
    56    26    53 1   
@<TRIPOS>SUBSTRUCTURE
     1 896         1 TEMP              0 ****  ****    0 ROOT
