@<TRIPOS>MOLECULE
897
   71    72     1     0     0
SMALL
abcg2


@<TRIPOS>ATOM
      1 C8           8.1240     6.1410    -5.1770 c3         1 897      -0.117100
      2 C7           9.3000     5.2820    -4.7210 c3         1 897       0.247500
      3 N3          10.1090     4.8140    -5.8250 nu         1 897      -0.977200
      4 C9          11.0000     5.5620    -6.5130 ca         1 897       0.380000
      5 C10         11.7020     5.0090    -7.6000 ca         1 897      -0.258500
      6 C11         12.6130     5.7840    -8.2820 ca         1 897       0.372900
      7 N4          12.8950     7.0540    -7.9900 nb         1 897      -0.706000
      8 C12         12.2300     7.5730    -6.9630 ca         1 897       0.372900
      9 C13         11.2910     6.9000    -6.2030 ca         1 897      -0.258500
     10 C1           8.7760     4.0860    -3.9500 c3         1 897       0.146600
     11 O3           9.8740     3.3670    -3.4280 os         1 897      -0.342100
     12 C14          9.6510     2.1720    -2.8470 ca         1 897       0.138100
     13 C15         10.7850     1.4360    -2.4980 ca         1 897      -0.129000
     14 C19         10.6690     0.1920    -1.8990 ca         1 897      -0.041300
     15 C20         11.8900    -0.5880    -1.5070 c3         1 897      -0.049800
     16 C18          9.3950    -0.3240    -1.6520 ca         1 897      -0.106000
     17 C16          8.3860     1.6560    -2.5960 ca         1 897      -0.184000
     18 C17          8.2690     0.3950    -2.0130 ca         1 897      -0.099600
     19 C21          6.9180    -0.1770    -1.6950 c          1 897       0.614700
     20 O2           6.6390    -0.4070    -0.5250 o          1 897      -0.592100
     21 N2           6.0770    -0.4140    -2.7200 n          1 897      -0.412800
     22 C22          4.7200    -0.9300    -2.4800 c3         1 897       0.119700
     23 C23          3.8500     0.0290    -1.6760 c3         1 897      -0.103600
     24 C24          4.7210    -2.3460    -1.9130 c3         1 897      -0.103600
     25 C6           6.4770    -0.3320    -4.1170 c3         1 897       0.117000
     26 C5           5.8340     0.8500    -4.8340 c3         1 897      -0.186400
     27 C4           6.4090     1.0640    -6.2220 c          1 897       0.601100
     28 O1           7.0600     0.1940    -6.7840 o          1 897      -0.603100
     29 N1           6.1270     2.2640    -6.7590 ns         1 897      -0.512900
     30 C3           6.4210     2.6990    -8.1320 c3         1 897       0.139400
     31 C25          5.8110     4.0910    -8.2800 c3         1 897      -0.105100
     32 C26          7.9300     2.7870    -8.3580 c3         1 897      -0.105100
     33 C2           5.7740     1.7620    -9.1530 c3         1 897      -0.105100
     34 H8C1         7.5870     6.5470    -4.3200 hc         1 897       0.046033
     35 H8C2         7.4220     5.5560    -5.7740 hc         1 897       0.046033
     36 H8C3         8.4590     6.9800    -5.7860 hc         1 897       0.046033
     37 H7           9.9270     5.8730    -4.0440 h1         1 897       0.072700
     38 H3          10.0140     3.8520    -6.1060 hn         1 897       0.497000
     39 H1C1         8.1160     4.4350    -3.1480 h1         1 897       0.042200
     40 H1C2         8.1770     3.4510    -4.6190 h1         1 897       0.042200
     41 H10         11.5330     3.9820    -7.9020 ha         1 897       0.118000
     42 H13         10.8060     7.4180    -5.3880 ha         1 897       0.118000
     43 H11         13.1510     5.3500    -9.1200 h4         1 897       0.011100
     44 H12         12.4540     8.6070    -6.7180 h4         1 897       0.011100
     45 H15         11.7640     1.8500    -2.7070 ha         1 897       0.130000
     46 H16          7.4930     2.2160    -2.8360 ha         1 897       0.116000
     47 H201        12.0290    -0.5710    -0.4250 hc         1 897       0.047367
     48 H202        11.8030    -1.6340    -1.8020 hc         1 897       0.047367
     49 H203        12.7910    -0.1820    -1.9620 hc         1 897       0.047367
     50 H18          9.2910    -1.2990    -1.1910 ha         1 897       0.128000
     51 H22          4.2740    -0.9950    -3.4740 h1         1 897       0.038700
     52 H6C1         7.5600    -0.2750    -4.1860 h1         1 897       0.070200
     53 H6C2         6.1900    -1.2650    -4.6050 h1         1 897       0.070200
     54 H231         2.8170    -0.3190    -1.6970 hc         1 897       0.045533
     55 H232         4.1610     0.0950    -0.6360 hc         1 897       0.045533
     56 H233         3.8720     1.0300    -2.1100 hc         1 897       0.045533
     57 H241         5.3470    -3.0070    -2.5150 hc         1 897       0.045533
     58 H242         3.7050    -2.7440    -1.9340 hc         1 897       0.045533
     59 H243         5.0750    -2.3750    -0.8850 hc         1 897       0.045533
     60 H5C1         5.9360     1.7590    -4.2370 hc         1 897       0.059200
     61 H5C2         4.7560     0.6920    -4.9400 hc         1 897       0.059200
     62 H1           5.5440     2.8760    -6.2100 hn         1 897       0.305500
     63 H251         6.2500     4.7990    -7.5740 hc         1 897       0.045589
     64 H252         5.9920     4.4750    -9.2840 hc         1 897       0.045589
     65 H253         4.7310     4.0740    -8.1180 hc         1 897       0.045589
     66 H261         8.4190     1.8240    -8.2260 hc         1 897       0.045589
     67 H262         8.3790     3.5010    -7.6650 hc         1 897       0.045589
     68 H263         8.1360     3.1370    -9.3700 hc         1 897       0.045589
     69 H2C1         4.6940     1.7150    -9.0040 hc         1 897       0.045589
     70 H2C2         5.9570     2.1310   -10.1630 hc         1 897       0.045589
     71 H2C3         6.1750     0.7520    -9.0890 hc         1 897       0.045589
@<TRIPOS>BOND
     1     1     2 1   
     2     1    34 1   
     3     1    35 1   
     4     1    36 1   
     5     2     3 1   
     6     2    10 1   
     7     2    37 1   
     8     3     4 1   
     9     3    38 1   
    10     4     5 ar  
    11     4     9 ar  
    12     5     6 ar  
    13     5    41 1   
    14     6     7 ar  
    15     6    43 1   
    16     7     8 ar  
    17     8     9 ar  
    18     8    44 1   
    19     9    42 1   
    20    10    11 1   
    21    10    39 1   
    22    10    40 1   
    23    11    12 1   
    24    12    13 ar  
    25    12    17 ar  
    26    13    14 ar  
    27    13    45 1   
    28    14    15 1   
    29    14    16 ar  
    30    15    47 1   
    31    15    48 1   
    32    15    49 1   
    33    16    18 ar  
    34    16    50 1   
    35    17    18 ar  
    36    17    46 1   
    37    18    19 1   
    38    19    20 2   
    39    19    21 1   
    40    21    22 1   
    41    21    25 1   
    42    22    23 1   
    43    22    24 1   
    44    22    51 1   
    45    23    54 1   
    46    23    55 1   
    47    23    56 1   
    48    24    57 1   
    49    24    58 1   
    50    24    59 1   
    51    25    26 1   
    52    25    52 1   
    53    25    53 1   
    54    26    27 1   
    55    26    60 1   
    56    26    61 1   
    57    27    28 2   
    58    27    29 1   
    59    29    30 1   
    60    29    62 1   
    61    30    31 1   
    62    30    32 1   
    63    30    33 1   
    64    31    63 1   
    65    31    64 1   
    66    31    65 1   
    67    32    66 1   
    68    32    67 1   
    69    32    68 1   
    70    33    69 1   
    71    33    70 1   
    72    33    71 1   
@<TRIPOS>SUBSTRUCTURE
     1 897         1 TEMP              0 ****  ****    0 ROOT
