@<TRIPOS>MOLECULE
897
   71    72     1     0     0
SMALL
No Charge or Current Charge


@<TRIPOS>ATOM
      1 C8           7.7520     6.3310    -5.1040 c3         1 897      -0.117100
      2 C7           8.9720     5.5150    -4.6250 c3         1 897       0.247500
      3 N3           9.8840     5.2680    -5.7630 nu         1 897      -0.977200
      4 C9          10.6270     6.1860    -6.4960 ca         1 897       0.380000
      5 C10         11.2210     5.7770    -7.6870 ca         1 897      -0.258500
      6 C11         11.9730     6.7000    -8.4210 ca         1 897       0.372900
      7 N4          12.1570     7.9770    -8.0220 nb         1 897      -0.706000
      8 C12         11.5850     8.3630    -6.8610 ca         1 897       0.372900
      9 C13         10.8170     7.5020    -6.0700 ca         1 897      -0.258500
     10 C1           8.5180     4.1810    -3.9650 c3         1 897       0.146600
     11 O3           9.6780     3.3980    -3.6130 os         1 897      -0.342100
     12 C14          9.5770     2.1530    -3.0270 ca         1 897       0.138100
     13 C15         10.7670     1.4810    -2.7120 ca         1 897      -0.129000
     14 C19         10.7330     0.2230    -2.0860 ca         1 897      -0.041300
     15 C20         12.0280    -0.4920    -1.7290 c3         1 897      -0.049800
     16 C18          9.4920    -0.3660    -1.7820 ca         1 897      -0.106000
     17 C16          8.3350     1.5520    -2.7280 ca         1 897      -0.184000
     18 C17          8.2820     0.2770    -2.1200 ca         1 897      -0.099600
     19 C21          6.9630    -0.3810    -1.7620 c          1 897       0.614700
     20 O2           6.8490    -0.9570    -0.6870 o          1 897      -0.592100
     21 N2           5.8600    -0.2280    -2.6510 n          1 897      -0.412800
     22 C22          4.4850    -0.6110    -2.2220 c3         1 897       0.119700
     23 C23          3.9390     0.2620    -1.0720 c3         1 897      -0.103600
     24 C24          4.2810    -2.1300    -2.0180 c3         1 897      -0.103600
     25 C6           6.0990    -0.2350    -4.1210 c3         1 897       0.117000
     26 C5           5.4430     0.9370    -4.8850 c3         1 897      -0.186400
     27 C4           5.7860     0.8450    -6.3690 c          1 897       0.601100
     28 O1           5.2500     0.0320    -7.1060 o          1 897      -0.603100
     29 N1           6.7230     1.7660    -6.7950 ns         1 897      -0.512900
     30 C3           7.2630     1.9310    -8.1510 c3         1 897       0.139400
     31 C25          8.3100     3.0660    -8.0840 c3         1 897      -0.105100
     32 C26          7.9620     0.6300    -8.6220 c3         1 897      -0.105100
     33 C2           6.1380     2.3330    -9.1360 c3         1 897      -0.105100
     34 H8C1         7.0710     6.5270    -4.2680 hc         1 897       0.046033
     35 H8C2         7.1970     5.7860    -5.8770 hc         1 897       0.046033
     36 H8C3         8.0570     7.2980    -5.5200 hc         1 897       0.046033
     37 H7           9.4970     6.0960    -3.8530 h1         1 897       0.072700
     38 H3          10.0250     4.2920    -6.0210 hn         1 897       0.497000
     39 H1C1         7.9200     4.4070    -3.0720 h1         1 897       0.042200
     40 H1C2         7.8860     3.6290    -4.6710 h1         1 897       0.042200
     41 H10         11.1030     4.7620    -8.0520 ha         1 897       0.118000
     42 H13         10.3910     7.8650    -5.1420 ha         1 897       0.118000
     43 H11         12.4460     6.4110    -9.3590 h4         1 897       0.011100
     44 H12         11.7510     9.3950    -6.5570 h4         1 897       0.011100
     45 H15         11.7200     1.9490    -2.9440 ha         1 897       0.130000
     46 H16          7.4070     2.0750    -2.9270 ha         1 897       0.116000
     47 H201        12.3430    -0.2400    -0.7100 hc         1 897       0.047367
     48 H202        11.9120    -1.5800    -1.7860 hc         1 897       0.047367
     49 H203        12.8410    -0.2120    -2.4100 hc         1 897       0.047367
     50 H18          9.4660    -1.3370    -1.2910 ha         1 897       0.128000
     51 H22          3.8270    -0.3720    -3.0660 h1         1 897       0.038700
     52 H6C1         7.1760    -0.2390    -4.3340 h1         1 897       0.070200
     53 H6C2         5.7070    -1.1770    -4.5280 h1         1 897       0.070200
     54 H231         2.8740     0.0580    -0.9090 hc         1 897       0.045533
     55 H232         4.4690     0.0650    -0.1340 hc         1 897       0.045533
     56 H233         4.0490     1.3250    -1.3150 hc         1 897       0.045533
     57 H241         4.6400    -2.6900    -2.8900 hc         1 897       0.045533
     58 H242         3.2170    -2.3560    -1.8860 hc         1 897       0.045533
     59 H243         4.8130    -2.4930    -1.1320 hc         1 897       0.045533
     60 H5C1         5.8020     1.8840    -4.4700 hc         1 897       0.059200
     61 H5C2         4.3550     0.8770    -4.7770 hc         1 897       0.059200
     62 H1           7.0780     2.3880    -6.0820 hn         1 897       0.305500
     63 H251         9.1220     2.8070    -7.3950 hc         1 897       0.045589
     64 H252         8.7510     3.2520    -9.0710 hc         1 897       0.045589
     65 H253         7.8530     4.0020    -7.7390 hc         1 897       0.045589
     66 H261         7.2480    -0.1910    -8.7490 hc         1 897       0.045589
     67 H262         8.7220     0.3120    -7.8980 hc         1 897       0.045589
     68 H263         8.4590     0.7860    -9.5870 hc         1 897       0.045589
     69 H2C1         5.6170     3.2310    -8.7850 hc         1 897       0.045589
     70 H2C2         6.5510     2.5470   -10.1290 hc         1 897       0.045589
     71 H2C3         5.3980     1.5330    -9.2510 hc         1 897       0.045589
@<TRIPOS>BOND
     1     1     2 1   
     2     1    34 1   
     3     1    35 1   
     4     1    36 1   
     5     2     3 1   
     6     2    10 1   
     7     2    37 1   
     8     3     4 1   
     9     3    38 1   
    10     4     5 ar  
    11     4     9 ar  
    12     5     6 ar  
    13     5    41 1   
    14     6     7 ar  
    15     6    43 1   
    16     7     8 ar  
    17     8     9 ar  
    18     8    44 1   
    19     9    42 1   
    20    10    11 1   
    21    10    39 1   
    22    10    40 1   
    23    11    12 1   
    24    12    13 ar  
    25    12    17 ar  
    26    13    14 ar  
    27    13    45 1   
    28    14    15 1   
    29    14    16 ar  
    30    15    47 1   
    31    15    48 1   
    32    15    49 1   
    33    16    18 ar  
    34    16    50 1   
    35    17    18 ar  
    36    17    46 1   
    37    18    19 1   
    38    19    20 2   
    39    19    21 1   
    40    21    22 1   
    41    21    25 1   
    42    22    23 1   
    43    22    24 1   
    44    22    51 1   
    45    23    54 1   
    46    23    55 1   
    47    23    56 1   
    48    24    57 1   
    49    24    58 1   
    50    24    59 1   
    51    25    26 1   
    52    25    52 1   
    53    25    53 1   
    54    26    27 1   
    55    26    60 1   
    56    26    61 1   
    57    27    28 2   
    58    27    29 1   
    59    29    30 1   
    60    29    62 1   
    61    30    31 1   
    62    30    32 1   
    63    30    33 1   
    64    31    63 1   
    65    31    64 1   
    66    31    65 1   
    67    32    66 1   
    68    32    67 1   
    69    32    68 1   
    70    33    69 1   
    71    33    70 1   
    72    33    71 1   
@<TRIPOS>SUBSTRUCTURE
     1 897         1 TEMP              0 ****  ****    0 ROOT
