@<TRIPOS>MOLECULE
898
   53    55     1     0     0
SMALL
No Charge or Current Charge


@<TRIPOS>ATOM
      1 Cl1         -1.1820    -4.0250    -1.6410 cl         1 898      -0.134000
      2 C1           0.0850    -2.8390    -1.6410 cc         1 898      -0.030000
      3 C2           0.9210    -2.5690    -2.6910 cd         1 898      -0.134000
      4 C3           1.8530    -1.5340    -2.4070 cd         1 898      -0.089000
      5 S2           0.4400    -1.8230    -0.2480 ss         1 898       0.317000
      6 C4           1.7360    -1.0090    -1.1410 cc         1 898      -0.238800
      7 C5           2.5020     0.0900    -0.5650 ce         1 898       0.044800
      8 C6           2.3050     0.6490     0.6600 cf         1 898      -0.468100
      9 S1           3.1780     2.0230     1.2810 sy         1 898       1.170200
     10 O2           2.8660     2.2190     2.6960 o          1 898      -0.536000
     11 O1           4.5450     2.0470     0.7610 o          1 898      -0.536000
     12 N1           2.3640     3.2040     0.4400 n7         1 898      -0.900300
     13 C12          1.0690     3.7740     0.9650 c5         1 898       0.159500
     14 C13          0.4920     4.6270    -0.1970 c5         1 898      -0.101400
     15 C14         -0.3140     3.5720    -1.0150 c5         1 898       0.103000
     16 C50         -0.0710     2.7410     1.2390 c          1 898       0.533000
     17 O3          -0.2690     2.0680     2.2440 o          1 898      -0.520000
     18 N2          -0.8240     2.6860     0.0510 n          1 898      -0.236400
     19 C15         -1.8610     1.7180    -0.2090 ca         1 898      -0.092000
     20 C21         -2.8760     1.4440     0.7380 ca         1 898       0.184000
     21 F1          -3.0780     2.2730     1.7880 f          1 898      -0.164000
     22 C22         -1.6780     0.8080    -1.2710 ca         1 898      -0.097000
     23 C26         -2.5420    -0.2880    -1.4370 ca         1 898      -0.122000
     24 C27         -3.5860    -0.5220    -0.5230 ca         1 898      -0.052300
     25 C24         -3.7490     0.3610     0.5620 ca         1 898      -0.123000
     26 C28         -4.5290    -1.7190    -0.7070 c3         1 898       0.225800
     27 C8          -5.8370    -1.2090    -1.3570 c3         1 898      -0.090100
     28 N3          -4.7440    -2.4850     0.5600 n3         1 898      -0.715600
     29 C9          -5.6990    -3.6140     0.4310 c3         1 898       0.148600
     30 C7          -3.4790    -2.9360     1.1940 c3         1 898       0.148600
     31 H2           0.8690    -3.0870    -3.6440 ha         1 898       0.149000
     32 H3           2.5820    -1.1830    -3.1320 ha         1 898       0.140000
     33 H51C         3.2820     0.4950    -1.2190 ha         1 898       0.199000
     34 H61C         1.5530     0.3040     1.3710 h4         1 898       0.244000
     35 H1           2.1740     2.6850    -0.4140 hn         1 898       0.486000
     36 H12          1.2230     4.3700     1.8770 h1         1 898       0.122700
     37 H131        -0.1830     5.3960     0.1970 hc         1 898       0.075700
     38 H132         1.2540     5.1450    -0.7910 hc         1 898       0.075700
     39 H141        -1.1270     4.0320    -1.5910 h1         1 898       0.052700
     40 H142         0.3310     3.0160    -1.7080 h1         1 898       0.052700
     41 H22         -0.8510     0.9360    -1.9660 ha         1 898       0.117000
     42 H24         -4.5460     0.1950     1.2820 ha         1 898       0.153000
     43 H26         -2.3870    -0.9680    -2.2730 ha         1 898       0.119000
     44 H28         -4.0590    -2.3940    -1.4370 h1         1 898       0.027700
     45 H81C        -6.4210    -0.6160    -0.6430 hc         1 898       0.042700
     46 H82C        -5.6100    -0.5760    -2.2220 hc         1 898       0.042700
     47 H83C        -6.4570    -2.0390    -1.7140 hc         1 898       0.042700
     48 H91C        -5.3620    -4.3260    -0.3360 h1         1 898       0.033533
     49 H92C        -5.7910    -4.1550     1.3820 h1         1 898       0.033533
     50 H93C        -6.7020    -3.2610     0.1620 h1         1 898       0.033533
     51 H71C        -2.7980    -2.0970     1.3860 h1         1 898       0.033533
     52 H72C        -3.6820    -3.4200     2.1590 h1         1 898       0.033533
     53 H73C        -2.9600    -3.6610     0.5550 h1         1 898       0.033533
@<TRIPOS>BOND
     1     1     2 1   
     2     2     3 2   
     3     2     5 1   
     4     3     4 1   
     5     3    31 1   
     6     4     6 2   
     7     4    32 1   
     8     5     6 1   
     9     6     7 1   
    10     7     8 2   
    11     7    33 1   
    12     8     9 1   
    13     8    34 1   
    14     9    10 2   
    15     9    11 2   
    16     9    12 1   
    17    12    13 1   
    18    12    35 1   
    19    13    14 1   
    20    13    16 1   
    21    13    36 1   
    22    14    15 1   
    23    14    37 1   
    24    14    38 1   
    25    15    18 1   
    26    15    39 1   
    27    15    40 1   
    28    16    17 2   
    29    16    18 1   
    30    18    19 1   
    31    19    20 ar  
    32    19    22 ar  
    33    20    21 1   
    34    20    25 ar  
    35    22    23 ar  
    36    22    41 1   
    37    23    24 ar  
    38    23    43 1   
    39    24    25 ar  
    40    24    26 1   
    41    25    42 1   
    42    26    27 1   
    43    26    28 1   
    44    26    44 1   
    45    27    45 1   
    46    27    46 1   
    47    27    47 1   
    48    28    29 1   
    49    28    30 1   
    50    29    48 1   
    51    29    49 1   
    52    29    50 1   
    53    30    51 1   
    54    30    52 1   
    55    30    53 1   
@<TRIPOS>SUBSTRUCTURE
     1 898         1 TEMP              0 ****  ****    0 ROOT
