@<TRIPOS>MOLECULE
898
   53    55     1     0     0
SMALL
bcc


@<TRIPOS>ATOM
      1 CL1          1.5440    -5.2230     0.1730 cl         1 898      -0.042400
      2 C1           2.2700    -3.7990    -0.4140 cc         1 898       0.023300
      3 C2           3.0250    -3.6720    -1.5400 cd         1 898      -0.152000
      4 C3           3.4640    -2.3400    -1.7170 cd         1 898      -0.107000
      5 S2           2.0810    -2.3220     0.4400 ss         1 898       0.027200
      6 C4           3.0420    -1.4860    -0.7320 cc         1 898      -0.093900
      7 C5           3.3290    -0.0780    -0.6540 ce         1 898       0.094800
      8 C6           2.9250     0.7430     0.3190 cf         1 898      -0.418100
      9 S1           3.3120     2.4500     0.2900 sy         1 898       1.311800
     10 O2           3.6470     2.8470     1.6480 o          1 898      -0.606800
     11 O1           4.2470     2.6900    -0.7970 o          1 898      -0.606800
     12 N1           1.9470     3.2770    -0.1120 n7         1 898      -0.845100
     13 C12          0.8700     3.5680     0.8250 c5         1 898       0.159500
     14 C13         -0.0390     4.6570     0.2660 c5         1 898      -0.101400
     15 C14         -1.0980     3.8920    -0.5270 c5         1 898       0.103000
     16 C50         -0.0790     2.3740     0.9630 c          1 898       0.675500
     17 O3           0.1130     1.3700     1.6180 o          1 898      -0.595500
     18 N2          -1.1440     2.6110     0.1650 n          1 898      -0.396000
     19 C15         -2.1250     1.6380    -0.1020 ca         1 898       0.000600
     20 C21         -2.9950     1.2120     0.8920 ca         1 898       0.148900
     21 F1          -2.9010     1.7660     2.1070 f          1 898      -0.128900
     22 C22         -2.2480     1.0680    -1.3620 ca         1 898      -0.115000
     23 C26         -3.2120     0.1030    -1.6080 ca         1 898      -0.140000
     24 C27         -4.0680    -0.3220    -0.5980 ca         1 898      -0.052300
     25 C24         -3.9520     0.2460     0.6670 ca         1 898      -0.141000
     26 C28         -5.1520    -1.3390    -0.8830 c3         1 898       0.225800
     27 C8          -6.4620    -0.5890    -1.1280 c3         1 898      -0.090100
     28 N3          -5.2430    -2.2970     0.2100 n3         1 898      -0.715600
     29 C9          -6.3960    -3.1710     0.1210 c3         1 898       0.148600
     30 C7          -4.0330    -3.0910     0.3100 c3         1 898       0.148600
     31 H2           3.2540    -4.4880    -2.2080 ha         1 898       0.167000
     32 H3           4.0740    -2.0170    -2.5500 ha         1 898       0.158000
     33 H51C         3.9240     0.3060    -1.4760 ha         1 898       0.149000
     34 H61C         2.3230     0.4400     1.1660 h4         1 898       0.194000
     35 H1           1.6830     3.1650    -1.0850 hn         1 898       0.430800
     36 H12          1.3040     3.8360     1.7850 h1         1 898       0.122700
     37 H131        -0.5100     5.1830     1.0970 hc         1 898       0.075700
     38 H132         0.4980     5.3860    -0.3370 hc         1 898       0.075700
     39 H141        -2.0730     4.3780    -0.4970 h1         1 898       0.052700
     40 H142        -0.8220     3.7610    -1.5770 h1         1 898       0.052700
     41 H22         -1.5750     1.3760    -2.1520 ha         1 898       0.135000
     42 H24         -4.6010    -0.0710     1.4740 ha         1 898       0.171000
     43 H26         -3.2860    -0.3350    -2.5960 ha         1 898       0.137000
     44 H28         -4.8860    -1.8500    -1.8260 h1         1 898       0.027700
     45 H81C        -6.8360    -0.1390    -0.2070 hc         1 898       0.042700
     46 H82C        -6.2940     0.2100    -1.8500 hc         1 898       0.042700
     47 H83C        -7.2360    -1.2360    -1.5390 hc         1 898       0.042700
     48 H91C        -6.4220    -3.7650    -0.8060 h1         1 898       0.033533
     49 H92C        -6.3790    -3.8690     0.9580 h1         1 898       0.033533
     50 H93C        -7.3270    -2.6100     0.1900 h1         1 898       0.033533
     51 H71C        -3.1570    -2.4540     0.4350 h1         1 898       0.033533
     52 H72C        -4.0910    -3.7450     1.1790 h1         1 898       0.033533
     53 H73C        -3.8640    -3.7230    -0.5760 h1         1 898       0.033533
@<TRIPOS>BOND
     1     1     2 1   
     2     2     3 2   
     3     2     5 1   
     4     3     4 1   
     5     3    31 1   
     6     4     6 2   
     7     4    32 1   
     8     5     6 1   
     9     6     7 1   
    10     7     8 2   
    11     7    33 1   
    12     8     9 1   
    13     8    34 1   
    14     9    10 2   
    15     9    11 2   
    16     9    12 1   
    17    12    13 1   
    18    12    35 1   
    19    13    14 1   
    20    13    16 1   
    21    13    36 1   
    22    14    15 1   
    23    14    37 1   
    24    14    38 1   
    25    15    18 1   
    26    15    39 1   
    27    15    40 1   
    28    16    17 2   
    29    16    18 1   
    30    18    19 1   
    31    19    20 ar  
    32    19    22 ar  
    33    20    21 1   
    34    20    25 ar  
    35    22    23 ar  
    36    22    41 1   
    37    23    24 ar  
    38    23    43 1   
    39    24    25 ar  
    40    24    26 1   
    41    25    42 1   
    42    26    27 1   
    43    26    28 1   
    44    26    44 1   
    45    27    45 1   
    46    27    46 1   
    47    27    47 1   
    48    28    29 1   
    49    28    30 1   
    50    29    48 1   
    51    29    49 1   
    52    29    50 1   
    53    30    51 1   
    54    30    52 1   
    55    30    53 1   
@<TRIPOS>SUBSTRUCTURE
     1 898         1 TEMP              0 ****  ****    0 ROOT
