@<TRIPOS>MOLECULE
89A
   47    48     1     0     0
SMALL
No Charge or Current Charge


@<TRIPOS>ATOM
      1 CAD         -1.3320     2.6400     1.6350 c3         1 89A      -0.088100
      2 CBB         -5.0910    -0.4540    -1.2840 c          1 89A       0.596100
      3 CBC         -4.2280    -0.6110     0.0060 c3         1 89A       0.032700
      4 CBD         -5.0790    -0.5560     1.2980 c3         1 89A      -0.109100
      5 CBE         -2.0000     0.3240     0.7960 c          1 89A       0.565100
      6 CBF         -1.0170     1.5220     0.6210 c3         1 89A       0.093300
      7 NBK         -3.1500     0.4040     0.0350 ns         1 89A      -0.504900
      8 OBM         -4.9200     0.4300    -2.1100 o          1 89A      -0.614100
      9 OBN         -1.7590    -0.6560     1.4920 o          1 89A      -0.579100
     10 C1           3.5490     0.7420     0.2050 c5         1 89A       0.354300
     11 C2           2.3640    -0.2390     0.5550 c6         1 89A       0.071700
     12 N2           2.6700    -1.6400     0.1620 ns         1 89A      -0.500900
     13 C3           1.0090     0.2270    -0.0630 c6         1 89A       0.159300
     14 O3           0.3690     1.1570     0.8520 os         1 89A      -0.414000
     15 C4           1.2220     0.8270    -1.5020 c6         1 89A       0.118300
     16 O4           1.3860    -0.2220    -2.4740 oh         1 89A      -0.719000
     17 C5           2.4940     1.7310    -1.5420 c5         1 89A       0.085300
     18 O5           3.6330     0.9060    -1.2210 os         1 89A      -0.447000
     19 C6           2.5720     2.7860    -0.3970 c5         1 89A       0.139600
     20 O6           3.3070     2.0990     0.6560 os         1 89A      -0.449000
     21 C7           3.7230    -2.3930     0.6240 c          1 89A       0.603100
     22 O7           4.5060    -1.9750     1.4640 o          1 89A      -0.603100
     23 C8           3.8340    -3.7840     0.0180 c3         1 89A      -0.178100
     24 HAD1        -0.6520     3.4890     1.4960 hc         1 89A       0.052700
     25 HAD2        -2.3590     3.0020     1.5040 hc         1 89A       0.052700
     26 HAD3        -1.2240     2.2740     2.6630 hc         1 89A       0.052700
     27 HBF         -1.1520     1.9300    -0.3870 h1         1 89A       0.041700
     28 HBC         -3.7620    -1.6030    -0.0560 h1         1 89A       0.079700
     29 HBJ1        -6.2300    -2.0940    -0.7930 hn         1 89A       0.319000
     30 HBJ2        -6.6630    -1.2900    -2.2890 hn         1 89A       0.319000
     31 HBD1        -5.8360    -1.3480     1.3070 hc         1 89A       0.051033
     32 HBD2        -4.4500    -0.6880     2.1860 hc         1 89A       0.051033
     33 HBD3        -5.5910     0.4100     1.3830 hc         1 89A       0.051033
     34 HBK         -3.2560     1.2230    -0.5560 hn         1 89A       0.337500
     35 H1           4.5010     0.3760     0.6100 h2         1 89A       0.112700
     36 H2           2.2490    -0.2330     1.6480 h1         1 89A       0.125700
     37 HA           2.0800    -2.0840    -0.5340 hn         1 89A       0.328500
     38 H3           0.3520    -0.6500    -0.1450 h1         1 89A       0.073700
     39 H4           0.3500     1.4340    -1.7780 h1         1 89A       0.042700
     40 HB           2.3620    -0.3490    -2.5570 ho         1 89A       0.512000
     41 H5           2.6120     2.1810    -2.5380 h1         1 89A       0.083700
     42 H61C         3.1440     3.6700    -0.7070 h1         1 89A       0.060200
     43 H62C         1.5910     3.1200    -0.0370 h1         1 89A       0.060200
     44 H81C         4.6820    -4.3520     0.4160 hc         1 89A       0.059033
     45 H82C         2.8860    -4.3150     0.1650 hc         1 89A       0.059033
     46 H83C         3.8830    -3.6950    -1.0740 hc         1 89A       0.059033
     47 NBJ         -6.0800    -1.3580    -1.4680 nt         1 89A      -0.600000
@<TRIPOS>BOND
     1     1     6 1   
     2     1    24 1   
     3     1    25 1   
     4     1    26 1   
     5     2     3 1   
     6     2     8 2   
     7     2    47 1   
     8     3     4 1   
     9     3     7 1   
    10     3    28 1   
    11     4    31 1   
    12     4    32 1   
    13     4    33 1   
    14     5     6 1   
    15     5     7 1   
    16     5     9 2   
    17     6    14 1   
    18     6    27 1   
    19     7    34 1   
    20    10    11 1   
    21    10    18 1   
    22    10    20 1   
    23    10    35 1   
    24    11    12 1   
    25    11    13 1   
    26    11    36 1   
    27    12    21 1   
    28    12    37 1   
    29    13    14 1   
    30    13    15 1   
    31    13    38 1   
    32    15    16 1   
    33    15    17 1   
    34    15    39 1   
    35    16    40 1   
    36    17    18 1   
    37    17    19 1   
    38    17    41 1   
    39    19    20 1   
    40    19    42 1   
    41    19    43 1   
    42    21    22 2   
    43    21    23 1   
    44    23    44 1   
    45    23    45 1   
    46    23    46 1   
    47    29    47 1   
    48    30    47 1   
@<TRIPOS>SUBSTRUCTURE
     1 89A         1 TEMP              0 ****  ****    0 ROOT
