@<TRIPOS>MOLECULE
89A
   47    48     1     0     0
SMALL
abcg2


@<TRIPOS>ATOM
      1 CAD         -1.4960     2.7630     0.9520 c3         1 89A      -0.088100
      2 CBB         -5.0020    -0.8240    -0.9010 c          1 89A       0.596100
      3 CBC         -4.0320    -0.7540     0.2750 c3         1 89A       0.032700
      4 CBD         -4.8030    -0.4490     1.5620 c3         1 89A      -0.109100
      5 CBE         -1.8470     0.3100     0.5830 c          1 89A       0.565100
      6 CBF         -1.0110     1.5360     0.1930 c3         1 89A       0.093300
      7 NBK         -3.0420     0.2520    -0.0220 ns         1 89A      -0.504900
      8 OBM         -5.1550     0.1210    -1.6610 o          1 89A      -0.614100
      9 OBN         -1.4530    -0.5160     1.3900 o          1 89A      -0.579100
     10 C1           3.3750     0.6230     0.5800 c5         1 89A       0.354300
     11 C2           2.1170    -0.2530     0.4870 c6         1 89A       0.071700
     12 N2           2.4620    -1.5210    -0.1130 ns         1 89A      -0.500900
     13 C3           1.0250     0.4510    -0.3360 c6         1 89A       0.159300
     14 O3           0.3330     1.3280     0.5210 os         1 89A      -0.414000
     15 C4           1.6150     1.2140    -1.5370 c6         1 89A       0.118300
     16 O4           1.7820     0.2590    -2.5610 oh         1 89A      -0.719000
     17 C5           2.9500     1.8670    -1.1750 c5         1 89A       0.085300
     18 O5           3.8500     0.8710    -0.7120 os         1 89A      -0.447000
     19 C6           2.8730     2.7810     0.0460 c5         1 89A       0.139600
     20 O6           3.0820     1.8830     1.1300 os         1 89A      -0.449000
     21 C7           2.7430    -2.6280     0.6000 c          1 89A       0.603100
     22 O7           2.6950    -2.6650     1.8220 o          1 89A      -0.603100
     23 C8           3.1390    -3.8310    -0.2190 c3         1 89A      -0.178100
     24 HAD1        -0.9190     3.6380     0.6560 hc         1 89A       0.052700
     25 HAD2        -2.5440     2.9630     0.7330 hc         1 89A       0.052700
     26 HAD3        -1.3920     2.6240     2.0280 hc         1 89A       0.052700
     27 HBF         -1.1340     1.7180    -0.8850 h1         1 89A       0.041700
     28 HBC         -3.5300    -1.7190     0.3810 h1         1 89A       0.079700
     29 HBJ1        -5.5090    -2.7440    -0.3740 hn         1 89A       0.319000
     30 HBJ2        -6.3900    -2.0920    -1.6990 hn         1 89A       0.319000
     31 HBD1        -5.5370    -1.2260     1.7740 hc         1 89A       0.051033
     32 HBD2        -4.1170    -0.3990     2.4060 hc         1 89A       0.051033
     33 HBD3        -5.3250     0.5050     1.4840 hc         1 89A       0.051033
     34 HBK         -3.3060     0.9700    -0.6810 hn         1 89A       0.337500
     35 H1           4.1550     0.1290     1.1650 h2         1 89A       0.112700
     36 H2           1.7200    -0.4460     1.4840 h1         1 89A       0.125700
     37 HA           2.5780    -1.5480    -1.1140 hn         1 89A       0.328500
     38 H3           0.3530    -0.3220    -0.7320 h1         1 89A       0.073700
     39 H4           0.9170     2.0070    -1.8430 h1         1 89A       0.042700
     40 HB           2.2370     0.6660    -3.3050 ho         1 89A       0.512000
     41 H5           3.3880     2.3640    -2.0440 h1         1 89A       0.083700
     42 H61C         3.6690     3.5300     0.0240 h1         1 89A       0.060200
     43 H62C         1.9170     3.2960     0.1470 h1         1 89A       0.060200
     44 H81C         4.2050    -4.0180    -0.0880 hc         1 89A       0.059033
     45 H82C         2.6070    -4.7100     0.1420 hc         1 89A       0.059033
     46 H83C         2.9420    -3.7150    -1.2830 hc         1 89A       0.059033
     47 NBJ         -5.6830    -1.9700    -0.9920 nt         1 89A      -0.600000
@<TRIPOS>BOND
     1     1     6 1   
     2     1    24 1   
     3     1    25 1   
     4     1    26 1   
     5     2     3 1   
     6     2     8 2   
     7     2    47 1   
     8     3     4 1   
     9     3     7 1   
    10     3    28 1   
    11     4    31 1   
    12     4    32 1   
    13     4    33 1   
    14     5     6 1   
    15     5     7 1   
    16     5     9 2   
    17     6    14 1   
    18     6    27 1   
    19     7    34 1   
    20    10    11 1   
    21    10    18 1   
    22    10    20 1   
    23    10    35 1   
    24    11    12 1   
    25    11    13 1   
    26    11    36 1   
    27    12    21 1   
    28    12    37 1   
    29    13    14 1   
    30    13    15 1   
    31    13    38 1   
    32    15    16 1   
    33    15    17 1   
    34    15    39 1   
    35    16    40 1   
    36    17    18 1   
    37    17    19 1   
    38    17    41 1   
    39    19    20 1   
    40    19    42 1   
    41    19    43 1   
    42    21    22 2   
    43    21    23 1   
    44    23    44 1   
    45    23    45 1   
    46    23    46 1   
    47    29    47 1   
    48    30    47 1   
@<TRIPOS>SUBSTRUCTURE
     1 89A         1 TEMP              0 ****  ****    0 ROOT
