@<TRIPOS>MOLECULE
89B
   80    84     1     0     0
SMALL
abcg2


@<TRIPOS>ATOM
      1 O01         -3.4790   -16.4910    21.4350 o          1 89B      -0.596100
      2 C02         -3.6370   -17.4690    22.1510 c          1 89B       0.646300
      3 N03         -2.6220   -18.2040    22.6380 ns         1 89B      -0.471900
      4 C04         -1.2650   -17.9470    22.2370 c3         1 89B       0.033700
      5 C05         -0.2870   -18.6400    23.1960 c3         1 89B      -0.035100
      6 C06         -0.3510   -18.0620    24.5820 ca         1 89B      -0.103300
      7 C07         -1.0600   -18.6940    25.5990 ca         1 89B      -0.076000
      8 C08         -1.1410   -18.1430    26.8720 ca         1 89B      -0.147000
      9 C09         -0.4970   -16.9460    27.1130 ca         1 89B       0.176000
     10 C11          0.2180   -16.2880    26.1310 ca         1 89B      -0.147000
     11 C12          0.2840   -16.8560    24.8680 ca         1 89B      -0.076000
     12 C13         -1.0260   -18.4560    20.8120 c          1 89B       0.574100
     13 N14         -0.1420   -17.7260    20.1070 ns         1 89B      -0.507900
     14 C15          0.2570   -17.9820    18.7330 c3         1 89B       0.088700
     15 C16         -0.8990   -17.9370    17.7330 c3         1 89B      -0.085400
     16 C17         -1.8610   -16.7470    17.8810 c6         1 89B      -0.137700
     17 C18         -3.0670   -16.9060    16.9540 c6         1 89B      -0.070400
     18 C19         -2.7090   -16.5480    15.5230 c6         1 89B      -0.095400
     19 C20         -2.2800   -15.0970    15.4630 c6         1 89B       0.114000
     20 N21         -1.3160   -14.7890    16.5060 ns         1 89B      -0.503900
     21 C22         -1.1220   -15.4380    17.6670 c          1 89B       0.571000
     22 O23         -0.3450   -15.0050    18.5140 o          1 89B      -0.604000
     23 C24          1.0610   -19.3000    18.6580 c3         1 89B       0.073300
     24 O25          2.1250   -19.2890    19.5750 oh         1 89B      -0.664000
     25 C26          1.6350   -19.4640    17.2550 c          1 89B       0.603100
     26 N27          2.7550   -18.7680    17.0150 ns         1 89B      -0.497900
     27 C28          3.3640   -18.7210    15.7090 c3         1 89B       0.153300
     28 C29          2.5520   -17.9600    14.6870 ca         1 89B      -0.096300
     29 C30          2.5040   -18.4040    13.3700 ca         1 89B      -0.096500
     30 C31          1.8020   -17.6950    12.4050 ca         1 89B      -0.110500
     31 C32          1.1290   -16.5300    12.7500 ca         1 89B      -0.112000
     32 C33          1.1690   -16.0820    14.0640 ca         1 89B      -0.110500
     33 C34          1.8760   -16.7910    15.0260 ca         1 89B      -0.096500
     34 O35          1.0770   -20.1480    16.4100 o          1 89B      -0.590100
     35 O36         -1.5550   -19.4750    20.4070 o          1 89B      -0.587100
     36 C37         -4.9950   -17.8900    22.5340 cc         1 89B      -0.056100
     37 C38         -6.1820   -17.3280    22.2110 cd         1 89B      -0.148200
     38 C39         -7.1830   -18.1480    22.8240 ca         1 89B      -0.131800
     39 C40         -8.5790   -18.1330    22.8830 ca         1 89B      -0.049000
     40 C41         -9.2100   -19.1360    23.5920 ca         1 89B      -0.134000
     41 C42         -8.4790   -20.1440    24.2380 ca         1 89B      -0.081000
     42 C43         -7.0960   -20.1780    24.1950 ca         1 89B      -0.110000
     43 C44         -6.4830   -19.1640    23.4800 ca         1 89B       0.077100
     44 O45         -5.1550   -19.0010    23.3020 os         1 89B      -0.177200
     45 F10         -0.5640   -16.4070    28.3420 f          1 89B      -0.177000
     46 H1          -2.8190   -19.0570    23.1390 hn         1 89B       0.339500
     47 H2          -1.0850   -16.8700    22.2810 h1         1 89B       0.086700
     48 H3          -0.4960   -19.7130    23.2150 hc         1 89B       0.063200
     49 H4           0.7210   -18.5240    22.7930 hc         1 89B       0.063200
     50 H5          -1.5570   -19.6370    25.4040 ha         1 89B       0.115000
     51 H6          -1.6920   -18.6410    27.6590 ha         1 89B       0.134500
     52 H7           0.7180   -15.3530    26.3480 ha         1 89B       0.134500
     53 H8           0.8480   -16.3500    24.0930 ha         1 89B       0.115000
     54 H9           0.1040   -16.8170    20.4680 hn         1 89B       0.333500
     55 H10          0.9560   -17.1770    18.4990 h1         1 89B       0.069700
     56 H11         -1.4920   -18.8510    17.8110 hc         1 89B       0.072200
     57 H12         -0.4740   -17.9330    16.7270 hc         1 89B       0.072200
     58 H13         -2.2220   -16.7220    18.9120 hc         1 89B       0.092700
     59 H14         -3.8780   -16.2540    17.2940 hc         1 89B       0.055200
     60 H15         -3.4440   -17.9290    17.0230 hc         1 89B       0.055200
     61 H16         -3.5620   -16.6900    14.8590 hc         1 89B       0.057700
     62 H17         -1.9070   -17.1910    15.1500 hc         1 89B       0.057700
     63 H18         -1.8240   -14.8670    14.4990 h1         1 89B       0.038700
     64 H19         -3.1550   -14.4480    15.5680 h1         1 89B       0.038700
     65 H20         -0.8190   -13.9150    16.4150 hn         1 89B       0.310500
     66 H21          0.3880   -20.1480    18.8280 h1         1 89B       0.093700
     67 H22          1.8070   -18.9150    20.4050 ho         1 89B       0.457000
     68 H23          3.1830   -18.2580    17.7710 hn         1 89B       0.331500
     69 H24          3.5550   -19.7330    15.3450 h1         1 89B       0.056700
     70 H25          4.3390   -18.2460    15.8290 h1         1 89B       0.056700
     71 H26          3.0180   -19.3190    13.0960 ha         1 89B       0.113000
     72 H27          1.7740   -18.0570    11.3850 ha         1 89B       0.110500
     73 H28          0.5770   -15.9770    12.0020 ha         1 89B       0.110000
     74 H29          0.6500   -15.1730    14.3420 ha         1 89B       0.110500
     75 H30          1.8970   -16.4270    16.0470 ha         1 89B       0.113000
     76 H31         -6.3290   -16.4450    21.6100 ha         1 89B       0.229000
     77 H32         -9.1480   -17.3580    22.3860 ha         1 89B       0.123000
     78 H33        -10.2900   -19.1490    23.6530 ha         1 89B       0.117000
     79 H34         -9.0090   -20.9140    24.7840 ha         1 89B       0.118000
     80 H35         -6.5290   -20.9540    24.6920 ha         1 89B       0.132000
@<TRIPOS>BOND
     1     1     2 2   
     2     2     3 1   
     3     2    36 1   
     4     3     4 1   
     5     3    46 1   
     6     4     5 1   
     7     4    12 1   
     8     4    47 1   
     9     5     6 1   
    10     5    48 1   
    11     5    49 1   
    12     6     7 ar  
    13     6    11 ar  
    14     7     8 ar  
    15     7    50 1   
    16     8     9 ar  
    17     8    51 1   
    18     9    10 ar  
    19     9    45 1   
    20    10    11 ar  
    21    10    52 1   
    22    11    53 1   
    23    12    13 1   
    24    12    35 2   
    25    13    14 1   
    26    13    54 1   
    27    14    15 1   
    28    14    23 1   
    29    14    55 1   
    30    15    16 1   
    31    15    56 1   
    32    15    57 1   
    33    16    17 1   
    34    16    21 1   
    35    16    58 1   
    36    17    18 1   
    37    17    59 1   
    38    17    60 1   
    39    18    19 1   
    40    18    61 1   
    41    18    62 1   
    42    19    20 1   
    43    19    63 1   
    44    19    64 1   
    45    20    21 1   
    46    20    65 1   
    47    21    22 2   
    48    23    24 1   
    49    23    25 1   
    50    23    66 1   
    51    24    67 1   
    52    25    26 1   
    53    25    34 2   
    54    26    27 1   
    55    26    68 1   
    56    27    28 1   
    57    27    69 1   
    58    27    70 1   
    59    28    29 ar  
    60    28    33 ar  
    61    29    30 ar  
    62    29    71 1   
    63    30    31 ar  
    64    30    72 1   
    65    31    32 ar  
    66    31    73 1   
    67    32    33 ar  
    68    32    74 1   
    69    33    75 1   
    70    36    37 2   
    71    36    44 1   
    72    37    38 1   
    73    37    76 1   
    74    38    39 ar  
    75    38    43 ar  
    76    39    40 ar  
    77    39    77 1   
    78    40    41 ar  
    79    40    78 1   
    80    41    42 ar  
    81    41    79 1   
    82    42    43 ar  
    83    42    80 1   
    84    43    44 1   
@<TRIPOS>SUBSTRUCTURE
     1 89B         1 TEMP              0 ****  ****    0 ROOT
