@<TRIPOS>MOLECULE
89B
   80    84     1     0     0
SMALL
No Charge or Current Charge


@<TRIPOS>ATOM
      1 O01         -3.7850   -16.2030    23.1720 o          1 89B      -0.596100
      2 C02         -3.9180   -17.4050    22.9840 c          1 89B       0.646300
      3 N03         -2.9580   -18.1740    22.3640 ns         1 89B      -0.471900
      4 C04         -1.6240   -17.6990    21.9320 c3         1 89B       0.033700
      5 C05         -0.5540   -17.9780    23.0210 c3         1 89B      -0.035100
      6 C06         -0.9120   -17.3940    24.3840 ca         1 89B      -0.103300
      7 C07         -1.4950   -18.2090    25.3770 ca         1 89B      -0.076000
      8 C08         -1.8400   -17.6630    26.6260 ca         1 89B      -0.147000
      9 C09         -1.6010   -16.3050    26.8860 ca         1 89B       0.176000
     10 C11         -1.0180   -15.4880    25.9050 ca         1 89B      -0.147000
     11 C12         -0.6740   -16.0320    24.6540 ca         1 89B      -0.076000
     12 C13         -1.2330   -18.3510    20.5780 c          1 89B       0.574100
     13 N14         -0.1680   -17.7530    19.9290 ns         1 89B      -0.507900
     14 C15          0.3360   -18.0970    18.5860 c3         1 89B       0.088700
     15 C16         -0.7150   -17.7920    17.4760 c3         1 89B      -0.085400
     16 C17         -1.4210   -16.3870    17.5250 c6         1 89B      -0.137700
     17 C18         -2.4900   -16.2680    16.4020 c6         1 89B      -0.070400
     18 C19         -1.8360   -15.9690    15.0370 c6         1 89B      -0.095400
     19 C20         -1.0340   -14.6540    15.0930 c6         1 89B       0.114000
     20 N21         -0.2570   -14.4970    16.3320 ns         1 89B      -0.503900
     21 C22         -0.3600   -15.2550    17.4760 c          1 89B       0.571000
     22 O23          0.3190   -14.9640    18.4480 o          1 89B      -0.604000
     23 C24          0.9130   -19.5470    18.5250 c3         1 89B       0.073300
     24 O25          1.9380   -19.7050    19.5450 oh         1 89B      -0.664000
     25 C26          1.4420   -19.8880    17.1020 c          1 89B       0.603100
     26 N27          2.6390   -19.2930    16.7700 ns         1 89B      -0.497900
     27 C28          3.2320   -19.3170    15.4360 c3         1 89B       0.153300
     28 C29          2.5360   -18.3230    14.5160 ca         1 89B      -0.096300
     29 C30          1.5960   -18.7690    13.5660 ca         1 89B      -0.096500
     30 C31          0.9460   -17.8490    12.7250 ca         1 89B      -0.110500
     31 C32          1.2310   -16.4780    12.8300 ca         1 89B      -0.112000
     32 C33          2.1610   -16.0260    13.7810 ca         1 89B      -0.110500
     33 C34          2.8110   -16.9460    14.6230 ca         1 89B      -0.096500
     34 O35          0.8510   -20.6380    16.3360 o          1 89B      -0.590100
     35 O36         -1.8230   -19.3170    20.1110 o          1 89B      -0.587100
     36 C37         -5.1160   -18.1850    23.3840 cc         1 89B      -0.056100
     37 C38         -6.2370   -17.6870    24.0230 cd         1 89B      -0.148200
     38 C39         -7.1350   -18.7790    24.2210 ca         1 89B      -0.131800
     39 C40         -8.4020   -18.8580    24.8090 ca         1 89B      -0.049000
     40 C41         -9.0230   -20.1260    24.8390 ca         1 89B      -0.134000
     41 C42         -8.3710   -21.2590    24.2910 ca         1 89B      -0.081000
     42 C43         -7.0900   -21.1350    23.7060 ca         1 89B      -0.110000
     43 C44         -6.4940   -19.8680    23.6880 ca         1 89B       0.077100
     44 O45         -5.2550   -19.5610    23.1610 os         1 89B      -0.177200
     45 F10         -1.9330   -15.7820    28.0860 f          1 89B      -0.177000
     46 H1          -3.1960   -19.1490    22.2180 hn         1 89B       0.339500
     47 H2          -1.6740   -16.6160    21.7590 h1         1 89B       0.086700
     48 H3          -0.4090   -19.0630    23.1060 hc         1 89B       0.063200
     49 H4           0.4120   -17.5740    22.6930 hc         1 89B       0.063200
     50 H5          -1.6880   -19.2610    25.1790 ha         1 89B       0.115000
     51 H6          -2.2920   -18.2890    27.3900 ha         1 89B       0.134500
     52 H7          -0.8370   -14.4370    26.1130 ha         1 89B       0.134500
     53 H8          -0.2280   -15.3930    23.8950 ha         1 89B       0.115000
     54 H9           0.2270   -16.9320    20.3760 hn         1 89B       0.333500
     55 H10          1.1850   -17.4260    18.3990 h1         1 89B       0.069700
     56 H11         -1.4810   -18.5770    17.5090 hc         1 89B       0.072200
     57 H12         -0.2210   -17.9040    16.5040 hc         1 89B       0.072200
     58 H13         -1.9080   -16.3290    18.5070 hc         1 89B       0.092700
     59 H14         -3.1880   -15.4560    16.6510 hc         1 89B       0.055200
     60 H15         -3.0960   -17.1830    16.3440 hc         1 89B       0.055200
     61 H16         -2.6030   -15.9000    14.2540 hc         1 89B       0.057700
     62 H17         -1.1730   -16.7930    14.7440 hc         1 89B       0.057700
     63 H18         -0.3580   -14.5850    14.2300 h1         1 89B       0.038700
     64 H19         -1.7320   -13.8070    15.0340 h1         1 89B       0.038700
     65 H20          0.4280   -13.7520    16.3690 hn         1 89B       0.310500
     66 H21          0.0930   -20.2540    18.7070 h1         1 89B       0.093700
     67 H22          1.5450   -19.4040    20.3940 ho         1 89B       0.457000
     68 H23          3.0870   -18.7480    17.4970 hn         1 89B       0.331500
     69 H24          3.1630   -20.3330    15.0240 h1         1 89B       0.056700
     70 H25          4.2960   -19.0600    15.5170 h1         1 89B       0.056700
     71 H26          1.3660   -19.8290    13.4810 ha         1 89B       0.113000
     72 H27          0.2220   -18.2000    11.9930 ha         1 89B       0.110500
     73 H28          0.7290   -15.7660    12.1780 ha         1 89B       0.110000
     74 H29          2.3790   -14.9640    13.8670 ha         1 89B       0.110500
     75 H30          3.5280   -16.5880    15.3580 ha         1 89B       0.113000
     76 H31         -6.3930   -16.6520    24.3180 ha         1 89B       0.229000
     77 H32         -8.8900   -17.9800    25.2260 ha         1 89B       0.123000
     78 H33        -10.0090   -20.2340    25.2870 ha         1 89B       0.117000
     79 H34         -8.8590   -22.2310    24.3200 ha         1 89B       0.118000
     80 H35         -6.5800   -21.9960    23.2820 ha         1 89B       0.132000
@<TRIPOS>BOND
     1     1     2 2   
     2     2     3 1   
     3     2    36 1   
     4     3     4 1   
     5     3    46 1   
     6     4     5 1   
     7     4    12 1   
     8     4    47 1   
     9     5     6 1   
    10     5    48 1   
    11     5    49 1   
    12     6     7 ar  
    13     6    11 ar  
    14     7     8 ar  
    15     7    50 1   
    16     8     9 ar  
    17     8    51 1   
    18     9    10 ar  
    19     9    45 1   
    20    10    11 ar  
    21    10    52 1   
    22    11    53 1   
    23    12    13 1   
    24    12    35 2   
    25    13    14 1   
    26    13    54 1   
    27    14    15 1   
    28    14    23 1   
    29    14    55 1   
    30    15    16 1   
    31    15    56 1   
    32    15    57 1   
    33    16    17 1   
    34    16    21 1   
    35    16    58 1   
    36    17    18 1   
    37    17    59 1   
    38    17    60 1   
    39    18    19 1   
    40    18    61 1   
    41    18    62 1   
    42    19    20 1   
    43    19    63 1   
    44    19    64 1   
    45    20    21 1   
    46    20    65 1   
    47    21    22 2   
    48    23    24 1   
    49    23    25 1   
    50    23    66 1   
    51    24    67 1   
    52    25    26 1   
    53    25    34 2   
    54    26    27 1   
    55    26    68 1   
    56    27    28 1   
    57    27    69 1   
    58    27    70 1   
    59    28    29 ar  
    60    28    33 ar  
    61    29    30 ar  
    62    29    71 1   
    63    30    31 ar  
    64    30    72 1   
    65    31    32 ar  
    66    31    73 1   
    67    32    33 ar  
    68    32    74 1   
    69    33    75 1   
    70    36    37 2   
    71    36    44 1   
    72    37    38 1   
    73    37    76 1   
    74    38    39 ar  
    75    38    43 ar  
    76    39    40 ar  
    77    39    77 1   
    78    40    41 ar  
    79    40    78 1   
    80    41    42 ar  
    81    41    79 1   
    82    42    43 ar  
    83    42    80 1   
    84    43    44 1   
@<TRIPOS>SUBSTRUCTURE
     1 89B         1 TEMP              0 ****  ****    0 ROOT
