@<TRIPOS>MOLECULE
89C
   37    39     1     0     0
SMALL
No Charge or Current Charge


@<TRIPOS>ATOM
      1 C21         -3.2250    -1.0910     0.2610 ca         1 89C       0.132100
      2 C10          2.0300     1.0350     1.8860 cc         1 89C      -0.445200
      3 C11          3.2670     1.6600     1.4240 c          1 89C       0.688300
      4 C15          3.8510    -0.2220    -1.6860 ca         1 89C      -0.140000
      5 C14          3.2160     0.1810    -0.5000 ca         1 89C       0.178100
      6 O02         -4.5130     0.0360    -1.4190 os         1 89C      -0.365100
      7 C03         -3.3370    -0.0620    -0.6940 ca         1 89C       0.044100
      8 C04         -2.2560     0.8260    -0.8780 ca         1 89C      -0.140000
      9 C05         -1.0870     0.6740    -0.1100 ca         1 89C      -0.128000
     10 C06         -0.9680    -0.3570     0.8490 ca         1 89C       0.265000
     11 N07          0.2240    -0.5030     1.6140 nh         1 89C      -0.684200
     12 C08          0.1510    -1.0920     2.9730 c3         1 89C       0.198100
     13 C09          1.4330     0.0400     1.1750 cd         1 89C       0.280800
     14 O13          3.7800     1.1900     0.2430 os         1 89C      -0.339200
     15 C16          3.3080    -1.2630    -2.4570 ca         1 89C      -0.060000
     16 C17          2.1320    -1.9030    -2.0320 ca         1 89C      -0.148000
     17 C18          1.4950    -1.5020    -0.8450 ca         1 89C      -0.044000
     18 C19          2.0310    -0.4430    -0.0740 ca         1 89C      -0.158800
     19 C20         -2.0570    -1.2370     1.0240 ca         1 89C      -0.135000
     20 O22         -4.2650    -1.9560     0.4430 oh         1 89C      -0.530100
     21 H1           1.6140     1.4270     2.8030 ha         1 89C       0.212000
     22 H2           4.7660     0.2710    -2.0040 ha         1 89C       0.138000
     23 H3          -3.9710     0.9700    -3.2180 h1         1 89C       0.044367
     24 H4          -5.7120     0.9480    -2.8690 h1         1 89C       0.044367
     25 H5          -4.6490     2.0550    -1.9740 h1         1 89C       0.044367
     26 H6          -2.3030     1.6340    -1.6030 ha         1 89C       0.123000
     27 H7          -0.2700     1.3740    -0.2630 ha         1 89C       0.130000
     28 H8           0.0210    -2.1800     2.9140 h1         1 89C       0.048033
     29 H9           1.0720    -0.8950     3.5390 h1         1 89C       0.048033
     30 H10         -0.6870    -0.6620     3.5360 h1         1 89C       0.048033
     31 H11          3.8000    -1.5760    -3.3760 ha         1 89C       0.120000
     32 H12          1.7140    -2.7160    -2.6220 ha         1 89C       0.120000
     33 H13          0.5950    -2.0230    -0.5300 ha         1 89C       0.130000
     34 H14         -2.0010    -2.0490     1.7400 ha         1 89C       0.142000
     35 H15         -4.9700    -1.6770    -0.1840 ho         1 89C       0.485000
     36 O12          3.8130     2.5560     2.0490 o          1 89C      -0.503000
     37 C01         -4.7180     1.0530    -2.4180 c3         1 89C       0.155900
@<TRIPOS>BOND
     1     1     7 ar  
     2     1    19 ar  
     3     1    20 1   
     4     2     3 1   
     5     2    13 2   
     6     2    21 1   
     7     3    14 1   
     8     3    36 2   
     9     4     5 ar  
    10     4    15 ar  
    11     4    22 1   
    12     5    14 1   
    13     5    18 ar  
    14     6     7 1   
    15     6    37 1   
    16     7     8 ar  
    17     8     9 ar  
    18     8    26 1   
    19     9    10 ar  
    20     9    27 1   
    21    10    11 1   
    22    10    19 ar  
    23    11    12 1   
    24    11    13 1   
    25    12    28 1   
    26    12    29 1   
    27    12    30 1   
    28    13    18 1   
    29    15    16 ar  
    30    15    31 1   
    31    16    17 ar  
    32    16    32 1   
    33    17    18 ar  
    34    17    33 1   
    35    19    34 1   
    36    20    35 1   
    37    23    37 1   
    38    24    37 1   
    39    25    37 1   
@<TRIPOS>SUBSTRUCTURE
     1 89C         1 TEMP              0 ****  ****    0 ROOT
