@<TRIPOS>MOLECULE
89C
   37    39     1     0     0
SMALL
abcg2


@<TRIPOS>ATOM
      1 C21         -2.9660    -1.3640     0.0530 ca         1 89C       0.132100
      2 C10          2.2840     0.6800     2.0640 cc         1 89C      -0.445200
      3 C11          3.5510     1.1610     1.6090 c          1 89C       0.688300
      4 C15          3.6510    -0.1530    -1.7430 ca         1 89C      -0.140000
      5 C14          3.1240     0.1260    -0.4870 ca         1 89C       0.178100
      6 O02         -4.2750    -0.3230    -1.5550 os         1 89C      -0.365100
      7 C03         -3.1660    -0.2560    -0.7910 ca         1 89C       0.044100
      8 C04         -2.2520     0.7840    -0.7800 ca         1 89C      -0.140000
      9 C05         -1.1420     0.7370     0.0590 ca         1 89C      -0.128000
     10 C06         -0.9320    -0.3650     0.8680 ca         1 89C       0.265000
     11 N07          0.2070    -0.4390     1.7160 nh         1 89C      -0.684200
     12 C08         -0.0730    -0.3420     3.1400 c3         1 89C       0.198100
     13 C09          1.4270    -0.0230     1.2630 cd         1 89C       0.280800
     14 O13          3.8890     0.8940     0.3190 os         1 89C      -0.339200
     15 C16          2.9610    -0.9870    -2.5980 ca         1 89C      -0.060000
     16 C17          1.7560    -1.5580    -2.1910 ca         1 89C      -0.148000
     17 C18          1.2320    -1.2610    -0.9510 ca         1 89C      -0.044000
     18 C19          1.8890    -0.3830    -0.0770 ca         1 89C      -0.158800
     19 C20         -1.8510    -1.4140     0.8670 ca         1 89C      -0.135000
     20 O22         -3.8370    -2.3900     0.0710 oh         1 89C      -0.530100
     21 H1           2.0170     0.9660     3.0700 ha         1 89C       0.212000
     22 H2           4.6030     0.2760    -2.0270 ha         1 89C       0.138000
     23 H3          -3.7590     0.8700    -3.1820 h1         1 89C       0.044367
     24 H4          -5.4770     0.4930    -2.9510 h1         1 89C       0.044367
     25 H5          -4.6880     1.6880    -1.9050 h1         1 89C       0.044367
     26 H6          -2.3920     1.6490    -1.4140 ha         1 89C       0.123000
     27 H7          -0.4460     1.5650     0.0620 ha         1 89C       0.130000
     28 H8          -0.9850    -0.8900     3.3600 h1         1 89C       0.048033
     29 H9           0.7360    -0.7870     3.7150 h1         1 89C       0.048033
     30 H10         -0.2110     0.6940     3.4660 h1         1 89C       0.048033
     31 H11          3.3670    -1.2080    -3.5760 ha         1 89C       0.120000
     32 H12          1.2280    -2.2380    -2.8450 ha         1 89C       0.120000
     33 H13          0.3030    -1.7270    -0.6600 ha         1 89C       0.130000
     34 H14         -1.6880    -2.2880     1.4880 ha         1 89C       0.142000
     35 H15         -4.5540    -2.2270    -0.5540 ho         1 89C       0.485000
     36 O12          4.3400     1.8170     2.2520 o          1 89C      -0.503000
     37 C01         -4.5520     0.7450    -2.4400 c3         1 89C       0.155900
@<TRIPOS>BOND
     1     1     7 ar  
     2     1    19 ar  
     3     1    20 1   
     4     2     3 1   
     5     2    13 2   
     6     2    21 1   
     7     3    14 1   
     8     3    36 2   
     9     4     5 ar  
    10     4    15 ar  
    11     4    22 1   
    12     5    14 1   
    13     5    18 ar  
    14     6     7 1   
    15     6    37 1   
    16     7     8 ar  
    17     8     9 ar  
    18     8    26 1   
    19     9    10 ar  
    20     9    27 1   
    21    10    11 1   
    22    10    19 ar  
    23    11    12 1   
    24    11    13 1   
    25    12    28 1   
    26    12    29 1   
    27    12    30 1   
    28    13    18 1   
    29    15    16 ar  
    30    15    31 1   
    31    16    17 ar  
    32    16    32 1   
    33    17    18 ar  
    34    17    33 1   
    35    19    34 1   
    36    20    35 1   
    37    23    37 1   
    38    24    37 1   
    39    25    37 1   
@<TRIPOS>SUBSTRUCTURE
     1 89C         1 TEMP              0 ****  ****    0 ROOT
