@<TRIPOS>MOLECULE
89D
   60    63     1     0     0
SMALL
No Charge or Current Charge


@<TRIPOS>ATOM
      1 C4           4.6280     1.1340    -0.0830 ca         1 89D      -0.165000
      2 C5           4.3720     2.8150    -1.8230 ca         1 89D      -0.196000
      3 C6          -0.5710    -0.0870    -0.7430 ca         1 89D      -0.037800
      4 C7           3.4180     0.5200    -0.4670 ca         1 89D      -0.018300
      5 C8          -2.0000     1.6810     0.2020 ca         1 89D       0.222000
      6 C10          2.6670     1.0870    -1.5300 ca         1 89D       0.043100
      7 C13          0.2260    -3.6880     0.1380 cc         1 89D      -0.448200
      8 C15         -0.2860    -1.5300    -0.8920 cd         1 89D      -0.157200
      9 C17          0.5880    -4.2800    -1.1430 c          1 89D       0.570200
     10 C20          1.9650    -1.9330     2.3040 c3         1 89D      -0.109400
     11 C21          0.4620    -2.1820     2.6240 c3         1 89D       0.163600
     12 C22         -6.4940    -0.5840     1.3850 c3         1 89D      -0.070100
     13 C24         -5.4300     0.1510     0.5410 c3         1 89D      -0.052400
     14 C1          -1.1520     2.6490    -0.3580 ca         1 89D      -0.106000
     15 C2          -0.0140     2.2660    -1.0860 ca         1 89D      -0.161000
     16 C3          -1.6950     0.3160     0.0110 ca         1 89D      -0.017000
     17 C9           0.2840     0.9030    -1.2810 ca         1 89D       0.151100
     18 C11          5.0930     2.2770    -0.7510 ca         1 89D       0.201000
     19 C12          3.1660     2.2170    -2.2150 ca         1 89D       0.184000
     20 C14          0.1460    -2.0640    -2.0930 cc         1 89D       0.016600
     21 C16         -0.2000    -2.3870     0.2610 cd         1 89D       0.245100
     22 C18          3.0080    -0.7790     0.2290 c3         1 89D      -0.040100
     23 C19          2.3170    -0.5830     1.6020 c3         1 89D      -0.063400
     24 N25          0.5320    -3.3990    -2.2390 n          1 89D      -0.279000
     25 N26         -3.1180     2.1160     0.9280 nu         1 89D      -1.003000
     26 O27          0.9320    -5.4480    -1.2410 o          1 89D      -0.569000
     27 O28         -5.1970     2.3090     2.4300 oh         1 89D      -0.756700
     28 O29         -3.6690     0.4430     2.6920 oh         1 89D      -0.756700
     29 O30          1.4580     0.5390    -1.9100 os         1 89D      -0.239200
     30 O31         -0.3490    -1.8070     1.4940 os         1 89D      -0.334100
     31 F32          6.2560     2.8480    -0.3730 f          1 89D      -0.169000
     32 F33          2.4860     2.7370    -3.2630 f          1 89D      -0.159000
     33 S34         -4.3910     1.2610     1.5260 s6         1 89D       0.664400
     34 H4           5.2200     0.7170     0.7270 ha         1 89D       0.140000
     35 H5           4.7450     3.6890    -2.3490 ha         1 89D       0.153000
     36 H13          0.3190    -4.3530     0.9850 ha         1 89D       0.210000
     37 H201         2.5230    -1.9930     3.2460 hc         1 89D       0.053200
     38 H202         2.3360    -2.7710     1.7000 hc         1 89D       0.053200
     39 H212         0.3020    -3.2300     2.9090 h1         1 89D       0.059700
     40 H211         0.1830    -1.5650     3.4880 h1         1 89D       0.059700
     41 H223        -7.0980    -1.2390     0.7470 hc         1 89D       0.045367
     42 H222        -6.0200    -1.2020     2.1570 hc         1 89D       0.045367
     43 H221        -7.1660     0.1310     1.8750 hc         1 89D       0.045367
     44 H1          -1.3670     3.7050    -0.2170 ha         1 89D       0.115000
     45 H2           0.6360     3.0360    -1.4870 ha         1 89D       0.126000
     46 H3          -2.3390    -0.4470     0.4340 ha         1 89D       0.128000
     47 H14          0.2060    -1.5060    -3.0220 h4         1 89D       0.210000
     48 H182         2.3650    -1.3750    -0.4250 hc         1 89D       0.062700
     49 H181         3.9020    -1.3950     0.3800 hc         1 89D       0.062700
     50 H191         1.4210     0.0370     1.4750 hc         1 89D       0.049200
     51 H192         2.9880    -0.0110     2.2550 hc         1 89D       0.049200
     52 H233         1.9790    -4.2360    -3.5410 h1         1 89D       0.054033
     53 H231         0.3020    -4.7890    -3.8220 h1         1 89D       0.054033
     54 H232         0.8030    -3.1590    -4.3430 h1         1 89D       0.054033
     55 H6          -5.1870     1.8650     3.3000 ho         1 89D       0.427500
     56 H7          -2.7580     0.7870     2.6090 ho         1 89D       0.427500
     57 H241        -4.7620    -0.5690     0.0560 h1         1 89D       0.097200
     58 H242        -5.9100     0.7670    -0.2270 h1         1 89D       0.097200
     59 H26         -3.3460     3.1070     0.9180 hn         1 89D       0.487000
     60 C23          0.9270    -3.9240    -3.5660 c3         1 89D       0.080300
@<TRIPOS>BOND
     1     1     4 ar  
     2     1    18 ar  
     3     1    34 1   
     4     2    18 ar  
     5     2    19 ar  
     6     2    35 1   
     7     3     8 1   
     8     3    16 ar  
     9     3    17 ar  
    10     4     6 ar  
    11     4    22 1   
    12     5    14 ar  
    13     5    16 ar  
    14     5    25 1   
    15     6    19 ar  
    16     6    29 1   
    17     7     9 1   
    18     7    21 2   
    19     7    36 1   
    20     8    20 2   
    21     8    21 1   
    22     9    24 1   
    23     9    26 2   
    24    10    11 1   
    25    10    23 1   
    26    10    37 1   
    27    10    38 1   
    28    11    30 1   
    29    11    39 1   
    30    11    40 1   
    31    12    13 1   
    32    12    41 1   
    33    12    42 1   
    34    12    43 1   
    35    13    33 1   
    36    13    57 1   
    37    13    58 1   
    38    14    15 ar  
    39    14    44 1   
    40    15    17 ar  
    41    15    45 1   
    42    16    46 1   
    43    17    29 1   
    44    18    31 1   
    45    19    32 1   
    46    20    24 1   
    47    20    47 1   
    48    21    30 1   
    49    22    23 1   
    50    22    48 1   
    51    22    49 1   
    52    23    50 1   
    53    23    51 1   
    54    24    60 1   
    55    25    33 3   
    56    25    59 1   
    57    27    33 1   
    58    27    55 1   
    59    28    33 1   
    60    28    56 1   
    61    52    60 1   
    62    53    60 1   
    63    54    60 1   
@<TRIPOS>SUBSTRUCTURE
     1 89D         1 TEMP              0 ****  ****    0 ROOT
