@<TRIPOS>MOLECULE
89D
   60    63     1     0     0
SMALL
bcc


@<TRIPOS>ATOM
      1 C4           4.3250     1.7650    -0.7400 ca         1 89D      -0.183000
      2 C5           2.9700     3.1380    -2.2030 ca         1 89D      -0.214000
      3 C6          -0.6500    -0.8580    -0.0680 ca         1 89D      -0.037800
      4 C7           3.3070     0.8210    -0.6400 ca         1 89D      -0.018300
      5 C8          -2.3360     0.4870     1.0330 ca         1 89D       0.083600
      6 C10          2.1030     1.0610    -1.3020 ca         1 89D       0.043100
      7 C13          1.5220    -3.8820     0.4610 cc         1 89D      -0.398200
      8 C15         -0.0210    -2.1770    -0.3020 cd         1 89D      -0.157200
      9 C17          1.3040    -4.6440    -0.7310 c          1 89D       0.712700
     10 C20          3.3740    -1.6930     2.3260 c3         1 89D      -0.109400
     11 C21          1.9930    -2.1740     2.7480 c3         1 89D       0.140400
     12 C22         -6.5190     2.2240    -0.5020 c3         1 89D      -0.070100
     13 C24         -5.1250     2.0780     0.0790 c3         1 89D       0.058400
     14 C1          -1.6450     1.6310     0.6590 ca         1 89D      -0.124000
     15 C2          -0.4750     1.5510    -0.0840 ca         1 89D      -0.179000
     16 C3          -1.8130    -0.7520     0.6760 ca         1 89D      -0.035000
     17 C9           0.0040     0.3100    -0.4730 ca         1 89D       0.151100
     18 C11          4.1350     2.9000    -1.4990 ca         1 89D       0.165900
     19 C12          1.9730     2.1910    -2.0990 ca         1 89D       0.148900
     20 C14         -0.2090    -2.9080    -1.4250 cc         1 89D       0.066600
     21 C16          0.8760    -2.6980     0.6810 cd         1 89D       0.245100
     22 C18          3.5300    -0.4530     0.1230 c3         1 89D      -0.040100
     23 C19          3.3680    -0.3170     1.6410 c3         1 89D      -0.063400
     24 N25          0.4090    -4.0930    -1.6440 n          1 89D      -0.346000
     25 N26         -3.4850     0.5620     1.8570 nu         1 89D      -0.809400
     26 O27          1.8430    -5.7200    -0.9820 o          1 89D      -0.644500
     27 O28         -5.4930     1.7530     2.5580 oh         1 89D      -0.717700
     28 O29         -4.5760    -0.3390    -0.2150 oh         1 89D      -0.717700
     29 O30          1.1060     0.1290    -1.2590 os         1 89D      -0.239200
     30 O31          0.9910    -1.9380     1.7640 os         1 89D      -0.310900
     31 F32          5.1220     3.8020    -1.5800 f          1 89D      -0.133900
     32 F33          0.8410     2.3610    -2.7880 f          1 89D      -0.123900
     33 S34         -5.0690     0.6330     1.1770 s6         1 89D       0.553600
     34 H4           5.2710     1.6010    -0.2380 ha         1 89D       0.158000
     35 H5           2.8440     4.0180    -2.8200 ha         1 89D       0.171000
     36 H13          2.2150    -4.3040     1.1760 ha         1 89D       0.160000
     37 H201         3.9750    -1.6670     3.2370 hc         1 89D       0.053200
     38 H202         3.8580    -2.4270     1.6770 hc         1 89D       0.053200
     39 H212         2.0120    -3.2260     3.0460 h1         1 89D       0.059700
     40 H211         1.6530    -1.5980     3.6090 h1         1 89D       0.059700
     41 H223        -6.5490     3.0900    -1.1620 hc         1 89D       0.045367
     42 H222        -6.8000     1.3480    -1.0850 hc         1 89D       0.045367
     43 H221        -7.2600     2.3750     0.2830 hc         1 89D       0.045367
     44 H1          -2.0160     2.6070     0.9470 ha         1 89D       0.133000
     45 H2           0.0350     2.4690    -0.3400 ha         1 89D       0.144000
     46 H3          -2.3030    -1.6540     1.0180 ha         1 89D       0.146000
     47 H14         -0.8670    -2.5640    -2.2110 h4         1 89D       0.160000
     48 H182         2.8670    -1.2280    -0.2600 hc         1 89D       0.062700
     49 H181         4.5450    -0.8020    -0.0820 hc         1 89D       0.062700
     50 H191         2.4470     0.2240     1.8750 hc         1 89D       0.049200
     51 H192         4.1840     0.2970     2.0270 hc         1 89D       0.049200
     52 H233         1.0790    -4.9800    -3.4270 h1         1 89D       0.054033
     53 H231        -0.2790    -5.8060    -2.6510 h1         1 89D       0.054033
     54 H232        -0.5380    -4.2700    -3.4860 h1         1 89D       0.054033
     55 H6          -6.0420     1.2210     3.1440 ho         1 89D       0.388500
     56 H7          -4.8590    -1.2390    -0.0150 ho         1 89D       0.388500
     57 H241        -4.3810     1.9270    -0.7010 h1         1 89D       0.097200
     58 H242        -4.8490     2.9470     0.6710 h1         1 89D       0.097200
     59 H26         -3.4370     1.3160     2.5310 hn         1 89D       0.431800
     60 C23          0.1560    -4.8340    -2.8700 c3         1 89D       0.080300
@<TRIPOS>BOND
     1     1     4 ar  
     2     1    18 ar  
     3     1    34 1   
     4     2    18 ar  
     5     2    19 ar  
     6     2    35 1   
     7     3     8 1   
     8     3    16 ar  
     9     3    17 ar  
    10     4     6 ar  
    11     4    22 1   
    12     5    14 ar  
    13     5    16 ar  
    14     5    25 1   
    15     6    19 ar  
    16     6    29 1   
    17     7     9 1   
    18     7    21 2   
    19     7    36 1   
    20     8    20 2   
    21     8    21 1   
    22     9    24 1   
    23     9    26 2   
    24    10    11 1   
    25    10    23 1   
    26    10    37 1   
    27    10    38 1   
    28    11    30 1   
    29    11    39 1   
    30    11    40 1   
    31    12    13 1   
    32    12    41 1   
    33    12    42 1   
    34    12    43 1   
    35    13    33 1   
    36    13    57 1   
    37    13    58 1   
    38    14    15 ar  
    39    14    44 1   
    40    15    17 ar  
    41    15    45 1   
    42    16    46 1   
    43    17    29 1   
    44    18    31 1   
    45    19    32 1   
    46    20    24 1   
    47    20    47 1   
    48    21    30 1   
    49    22    23 1   
    50    22    48 1   
    51    22    49 1   
    52    23    50 1   
    53    23    51 1   
    54    24    60 1   
    55    25    33 3   
    56    25    59 1   
    57    27    33 1   
    58    27    55 1   
    59    28    33 1   
    60    28    56 1   
    61    52    60 1   
    62    53    60 1   
    63    54    60 1   
@<TRIPOS>SUBSTRUCTURE
     1 89D         1 TEMP              0 ****  ****    0 ROOT
