@<TRIPOS>MOLECULE
89E
   29    32     1     0     0
SMALL
No Charge or Current Charge


@<TRIPOS>ATOM
      1 N1           1.9600    32.4740     7.6620 na         1 89E      -0.002200
      2 N3           0.8130    33.1210     8.1670 nc         1 89E      -0.472800
      3 C4           0.2970    32.1420     8.8750 cd         1 89E       0.286500
      4 C5           0.9790    30.9660     8.8570 cd         1 89E      -0.184300
      5 C6           2.0820    31.1310     8.0760 cc         1 89E      -0.083000
      6 C7           3.0300    30.0990     7.6470 ca         1 89E       0.031000
      7 C8           3.3710    29.0020     8.4610 ca         1 89E      -0.157000
      8 C10          4.2930    28.0520     7.9920 ca         1 89E       0.340400
      9 N12          4.8870    28.1360     6.7800 nb         1 89E      -0.659000
     10 C13          4.5690    29.1930     6.0000 ca         1 89E       0.340400
     11 C15          3.6590    30.1890     6.3920 ca         1 89E      -0.157000
     12 C17          0.3460    29.7570     9.5130 c5         1 89E       0.051200
     13 C20         -0.9330    30.5480     9.9360 ca         1 89E      -0.084300
     14 C21         -0.9340    31.9100     9.5720 ca         1 89E      -0.118500
     15 C22         -2.0070    32.7690     9.8410 ca         1 89E      -0.072000
     16 C24         -3.1150    32.2370    10.5280 ca         1 89E      -0.115000
     17 C26         -3.1320    30.8770    10.9160 ca         1 89E      -0.104000
     18 C28         -2.0440    30.0270    10.6190 ca         1 89E      -0.101000
     19 HC8          2.9520    28.8850     9.4530 ha         1 89E       0.122000
     20 HC10         4.5700    27.1990     8.6100 h4         1 89E       0.021600
     21 HC13         5.0600    29.2430     5.0280 h4         1 89E       0.021600
     22 HC15         3.4440    31.0090     5.7150 ha         1 89E       0.122000
     23 H171         0.1390    28.9370     8.8170 hc         1 89E       0.067200
     24 HC22        -1.9830    33.8110     9.5300 ha         1 89E       0.125000
     25 HC24        -3.9650    32.8760    10.7590 ha         1 89E       0.114000
     26 HC26        -3.9950    30.4790    11.4450 ha         1 89E       0.113000
     27 HC28        -2.0680    28.9800    10.9140 ha         1 89E       0.114000
     28 HN1          2.6040    32.9630     7.0430 hn         1 89E       0.374000
     29 H172         0.9040    29.3750    10.3750 hc         1 89E       0.067200
@<TRIPOS>BOND
     1     1     2 1   
     2     1     5 1   
     3     1    28 1   
     4     2     3 2   
     5     3     4 1   
     6     3    14 1   
     7     4     5 2   
     8     4    12 1   
     9     5     6 1   
    10     6     7 ar  
    11     6    11 ar  
    12     7     8 ar  
    13     7    19 1   
    14     8     9 ar  
    15     8    20 1   
    16     9    10 ar  
    17    10    11 ar  
    18    10    21 1   
    19    11    22 1   
    20    12    13 1   
    21    12    23 1   
    22    12    29 1   
    23    13    14 ar  
    24    13    18 ar  
    25    14    15 ar  
    26    15    16 ar  
    27    15    24 1   
    28    16    17 ar  
    29    16    25 1   
    30    17    18 ar  
    31    17    26 1   
    32    18    27 1   
@<TRIPOS>SUBSTRUCTURE
     1 89E         1 TEMP              0 ****  ****    0 ROOT
