@<TRIPOS>MOLECULE
89E
   29    32     1     0     0
SMALL
abcg2


@<TRIPOS>ATOM
      1 N1           1.7850    32.1990     7.4010 na         1 89E      -0.002200
      2 N3           0.7020    32.8230     7.8530 nc         1 89E      -0.472800
      3 C4           0.1390    31.9270     8.6400 cd         1 89E       0.286500
      4 C5           0.8570    30.7270     8.6960 cd         1 89E      -0.184300
      5 C6           1.9400    30.9290     7.8700 cc         1 89E      -0.083000
      6 C7           3.0500    30.0600     7.5050 ca         1 89E       0.031000
      7 C8           3.1690    28.8020     8.0960 ca         1 89E      -0.157000
      8 C10          4.2260    27.9830     7.7380 ca         1 89E       0.340400
      9 N12          5.1530    28.3220     6.8500 nb         1 89E      -0.659000
     10 C13          5.0410    29.5190     6.2860 ca         1 89E       0.340400
     11 C15          4.0240    30.4140     6.5720 ca         1 89E      -0.157000
     12 C17          0.1770    29.7460     9.5950 c5         1 89E       0.051200
     13 C20         -1.0280    30.5500    10.0490 ca         1 89E      -0.084300
     14 C21         -1.0440    31.8350     9.4800 ca         1 89E      -0.118500
     15 C22         -2.0620    32.7320     9.7690 ca         1 89E      -0.072000
     16 C24         -3.0720    32.3330    10.6370 ca         1 89E      -0.115000
     17 C26         -3.0600    31.0620    11.2030 ca         1 89E      -0.104000
     18 C28         -2.0370    30.1630    10.9110 ca         1 89E      -0.101000
     19 HC8          2.4570    28.4540     8.8310 ha         1 89E       0.122000
     20 HC10         4.3250    27.0050     8.1960 h4         1 89E       0.021600
     21 HC13         5.8010    29.7870     5.5610 h4         1 89E       0.021600
     22 HC15         4.0130    31.3650     6.0560 ha         1 89E       0.122000
     23 H171        -0.1250    28.8310     9.0780 hc         1 89E       0.067200
     24 HC22        -2.0720    33.7210     9.3290 ha         1 89E       0.125000
     25 HC24        -3.8760    33.0180    10.8740 ha         1 89E       0.114000
     26 HC26        -3.8540    30.7690    11.8770 ha         1 89E       0.113000
     27 HC28        -2.0350    29.1760    11.3580 ha         1 89E       0.114000
     28 HN1          2.3960    32.6940     6.7690 hn         1 89E       0.374000
     29 H172         0.7960    29.4400    10.4430 hc         1 89E       0.067200
@<TRIPOS>BOND
     1     1     2 1   
     2     1     5 1   
     3     1    28 1   
     4     2     3 2   
     5     3     4 1   
     6     3    14 1   
     7     4     5 2   
     8     4    12 1   
     9     5     6 1   
    10     6     7 ar  
    11     6    11 ar  
    12     7     8 ar  
    13     7    19 1   
    14     8     9 ar  
    15     8    20 1   
    16     9    10 ar  
    17    10    11 ar  
    18    10    21 1   
    19    11    22 1   
    20    12    13 1   
    21    12    23 1   
    22    12    29 1   
    23    13    14 ar  
    24    13    18 ar  
    25    14    15 ar  
    26    15    16 ar  
    27    15    24 1   
    28    16    17 ar  
    29    16    25 1   
    30    17    18 ar  
    31    17    26 1   
    32    18    27 1   
@<TRIPOS>SUBSTRUCTURE
     1 89E         1 TEMP              0 ****  ****    0 ROOT
