@<TRIPOS>MOLECULE
89F
   48    51     1     0     0
SMALL
No Charge or Current Charge


@<TRIPOS>ATOM
      1 C7          -3.0890     0.3640     0.5500 ca         1 89F      -0.121000
      2 C6          -0.2530    -0.9450    -0.5370 c3         1 89F       0.253800
      3 C10         -2.8160    -0.6810    -0.3460 ca         1 89F      -0.042300
      4 C9           1.1170     1.1380    -0.8040 ca         1 89F      -0.086000
      5 C4           0.9050     3.1570     0.5180 ca         1 89F      -0.125000
      6 C2           0.0580     0.5150    -0.1040 ca         1 89F      -0.035300
      7 N1           0.9270    -1.8170    -0.2510 n3         1 89F      -0.756600
      8 N2           2.5810    -4.1090     0.7170 n3         1 89F      -0.719600
      9 C1          -0.5810     1.2580     0.9340 ca         1 89F      -0.107000
     10 C3          -0.1480     2.5640     1.2280 ca         1 89F      -0.072000
     11 C5           3.8300    -4.8680     0.9400 c3         1 89F       0.154100
     12 C8           3.1890     4.8240    -0.8010 c3         1 89F       0.018900
     13 C11          2.2720    -3.9160    -0.7340 c6         1 89F       0.163300
     14 C12          1.5440     2.4430    -0.5090 ca         1 89F      -0.084000
     15 C13         -4.2140     1.1860     0.3660 ca         1 89F      -0.063000
     16 C14          1.2390    -2.0020     1.2030 c6         1 89F       0.180300
     17 C15         -5.0740     0.9610    -0.7230 ca         1 89F      -0.120000
     18 C16         -3.6800    -0.9040    -1.4360 ca         1 89F      -0.114000
     19 C17          0.9360    -3.1350    -0.9610 c6         1 89F       0.180300
     20 C18          2.5710    -2.7900     1.4230 c6         1 89F       0.163300
     21 C19         -4.8060    -0.0830    -1.6250 ca         1 89F      -0.090000
     22 C20         -1.6090    -1.5760    -0.1050 c3         1 89F      -0.073100
     23 S1           2.9030     3.1250    -1.4680 ss         1 89F      -0.159000
     24 S2          -1.9640     0.6610     1.8980 ss         1 89F       0.019000
     25 H1          -0.3380    -0.8780    -1.6320 h1         1 89F       0.063700
     26 H2           1.6270     0.5870    -1.5910 ha         1 89F       0.136000
     27 H3           1.2040     4.1670     0.7780 ha         1 89F       0.116000
     28 H6          -0.6400     3.1300     2.0160 ha         1 89F       0.124000
     29 H7           3.9970    -5.0330     2.0130 h1         1 89F       0.029700
     30 H8           3.7800    -5.8490     0.4500 h1         1 89F       0.029700
     31 H9           4.6960    -4.3250     0.5360 h1         1 89F       0.029700
     32 H10          2.2830     5.4300    -0.9250 h1         1 89F       0.065700
     33 H11          3.4520     4.7670     0.2630 h1         1 89F       0.065700
     34 H12          4.0140     5.2960    -1.3480 h1         1 89F       0.065700
     35 H13          3.0860    -3.3600    -1.2220 h1         1 89F       0.037950
     36 H14          2.1990    -4.8890    -1.2400 h1         1 89F       0.037950
     37 H15         -4.4170     2.0000     1.0590 ha         1 89F       0.126000
     38 H16          1.3240    -1.0290     1.7080 h1         1 89F       0.039200
     39 H17          0.4300    -2.5550     1.7030 h1         1 89F       0.039200
     40 H18         -5.9450     1.5960    -0.8690 ha         1 89F       0.116000
     41 H19         -3.4820    -1.7130    -2.1360 ha         1 89F       0.113000
     42 H20          0.1100    -3.7690    -0.6080 h1         1 89F       0.039200
     43 H21          0.7940    -2.9880    -2.0410 h1         1 89F       0.039200
     44 H22          2.7180    -2.9350     2.5030 h1         1 89F       0.037950
     45 H23          3.4050    -2.1660     1.0670 h1         1 89F       0.037950
     46 H24         -5.4710    -0.2580    -2.4680 ha         1 89F       0.114000
     47 H25         -1.7510    -2.5100    -0.6580 hc         1 89F       0.065200
     48 H26         -1.5680    -1.8770     0.9470 hc         1 89F       0.065200
@<TRIPOS>BOND
     1     1     3 ar  
     2     1    15 ar  
     3     1    24 1   
     4     2     6 1   
     5     2     7 1   
     6     2    22 1   
     7     2    25 1   
     8     3    18 ar  
     9     3    22 1   
    10     4     6 ar  
    11     4    14 ar  
    12     4    26 1   
    13     5    10 ar  
    14     5    14 ar  
    15     5    27 1   
    16     6     9 ar  
    17     7    16 1   
    18     7    19 1   
    19     8    11 1   
    20     8    13 1   
    21     8    20 1   
    22     9    10 ar  
    23     9    24 1   
    24    10    28 1   
    25    11    29 1   
    26    11    30 1   
    27    11    31 1   
    28    12    23 1   
    29    12    32 1   
    30    12    33 1   
    31    12    34 1   
    32    13    19 1   
    33    13    35 1   
    34    13    36 1   
    35    14    23 1   
    36    15    17 ar  
    37    15    37 1   
    38    16    20 1   
    39    16    38 1   
    40    16    39 1   
    41    17    21 ar  
    42    17    40 1   
    43    18    21 ar  
    44    18    41 1   
    45    19    42 1   
    46    19    43 1   
    47    20    44 1   
    48    20    45 1   
    49    21    46 1   
    50    22    47 1   
    51    22    48 1   
@<TRIPOS>SUBSTRUCTURE
     1 89F         1 TEMP              0 ****  ****    0 ROOT
