@<TRIPOS>MOLECULE
89F
   48    51     1     0     0
SMALL
abcg2


@<TRIPOS>ATOM
      1 C7          -3.2170     0.4600     0.4310 ca         1 89F      -0.121000
      2 C6          -0.3600    -0.8990    -0.4090 c3         1 89F       0.253800
      3 C10         -2.8880    -0.7330    -0.2130 ca         1 89F      -0.042300
      4 C9           1.1950     0.9950    -0.6010 ca         1 89F      -0.086000
      5 C4           1.0370     3.1080     0.5140 ca         1 89F      -0.125000
      6 C2           0.0190     0.5310    -0.0130 ca         1 89F      -0.035300
      7 N1           0.7980    -1.7450    -0.1850 n3         1 89F      -0.756600
      8 N2           2.5690    -3.8390     0.5220 n3         1 89F      -0.719600
      9 C1          -0.6650     1.4060     0.8400 ca         1 89F      -0.107000
     10 C3          -0.1440     2.6760     1.0870 ca         1 89F      -0.072000
     11 C5           3.8520    -4.4900     0.6400 c3         1 89F       0.154100
     12 C8           3.5790     4.3360    -0.5760 c3         1 89F       0.018900
     13 C11          2.2210    -3.5840    -0.8610 c6         1 89F       0.163300
     14 C12          1.7170     2.2590    -0.3540 ca         1 89F      -0.084000
     15 C13         -4.3690     1.1640     0.1030 ca         1 89F      -0.063000
     16 C14          1.1300    -1.9910     1.2020 c6         1 89F       0.180300
     17 C15         -5.2090     0.6820    -0.8930 ca         1 89F      -0.120000
     18 C16         -3.7310    -1.1880    -1.2230 ca         1 89F      -0.114000
     19 C17          0.8400    -2.9630    -0.9610 c6         1 89F       0.180300
     20 C18          2.5100    -2.6140     1.2940 c6         1 89F       0.163300
     21 C19         -4.8830    -0.4910    -1.5600 ca         1 89F      -0.090000
     22 C20         -1.6550    -1.4810     0.1820 c3         1 89F      -0.073100
     23 S1           3.2170     2.6770    -1.1750 ss         1 89F      -0.159000
     24 S2          -2.1640     1.0460     1.7250 ss         1 89F       0.019000
     25 H1          -0.5040    -0.8740    -1.4960 h1         1 89F       0.063700
     26 H2           1.7310     0.3140    -1.2520 ha         1 89F       0.136000
     27 H3           1.3960     4.1020     0.7390 ha         1 89F       0.116000
     28 H6          -0.6840     3.3500     1.7410 ha         1 89F       0.124000
     29 H7           4.0690    -4.7050     1.6870 h1         1 89F       0.029700
     30 H8           3.8410    -5.4380     0.0990 h1         1 89F       0.029700
     31 H9           4.6850    -3.8890     0.2410 h1         1 89F       0.029700
     32 H10          2.8070     5.0480    -0.8650 h1         1 89F       0.065700
     33 H11          3.7160     4.3540     0.5040 h1         1 89F       0.065700
     34 H12          4.5130     4.6280    -1.0510 h1         1 89F       0.065700
     35 H13          2.9490    -2.9110    -1.3470 h1         1 89F       0.037950
     36 H14          2.2320    -4.5270    -1.4140 h1         1 89F       0.037950
     37 H15         -4.6040     2.0870     0.6160 ha         1 89F       0.126000
     38 H16          1.1280    -1.0480     1.7530 h1         1 89F       0.039200
     39 H17          0.4070    -2.6590     1.6970 h1         1 89F       0.039200
     40 H18         -6.1070     1.2270    -1.1520 ha         1 89F       0.116000
     41 H19         -3.4890    -2.1100    -1.7390 ha         1 89F       0.113000
     42 H20          0.0910    -3.7070    -0.6400 h1         1 89F       0.039200
     43 H21          0.6280    -2.7290    -2.0070 h1         1 89F       0.039200
     44 H22          2.7320    -2.8420     2.3400 h1         1 89F       0.037950
     45 H23          3.2610    -1.8790     0.9550 h1         1 89F       0.037950
     46 H24         -5.5290    -0.8680    -2.3420 ha         1 89F       0.114000
     47 H25         -1.7390    -2.5100    -0.1740 hc         1 89F       0.065200
     48 H26         -1.5870    -1.5290     1.2710 hc         1 89F       0.065200
@<TRIPOS>BOND
     1     1     3 ar  
     2     1    15 ar  
     3     1    24 1   
     4     2     6 1   
     5     2     7 1   
     6     2    22 1   
     7     2    25 1   
     8     3    18 ar  
     9     3    22 1   
    10     4     6 ar  
    11     4    14 ar  
    12     4    26 1   
    13     5    10 ar  
    14     5    14 ar  
    15     5    27 1   
    16     6     9 ar  
    17     7    16 1   
    18     7    19 1   
    19     8    11 1   
    20     8    13 1   
    21     8    20 1   
    22     9    10 ar  
    23     9    24 1   
    24    10    28 1   
    25    11    29 1   
    26    11    30 1   
    27    11    31 1   
    28    12    23 1   
    29    12    32 1   
    30    12    33 1   
    31    12    34 1   
    32    13    19 1   
    33    13    35 1   
    34    13    36 1   
    35    14    23 1   
    36    15    17 ar  
    37    15    37 1   
    38    16    20 1   
    39    16    38 1   
    40    16    39 1   
    41    17    21 ar  
    42    17    40 1   
    43    18    21 ar  
    44    18    41 1   
    45    19    42 1   
    46    19    43 1   
    47    20    44 1   
    48    20    45 1   
    49    21    46 1   
    50    22    47 1   
    51    22    48 1   
@<TRIPOS>SUBSTRUCTURE
     1 89F         1 TEMP              0 ****  ****    0 ROOT
