@<TRIPOS>MOLECULE
89G
   39    41     1     0     0
SMALL
No Charge or Current Charge


@<TRIPOS>ATOM
      1 C4           3.9820    -1.3800    -1.0900 ca         1 89G      -0.087500
      2 C5           1.6160     3.6060    -0.6120 ca         1 89G      -0.079000
      3 C6          -0.7080     2.8990    -0.7840 ca         1 89G      -0.061000
      4 C7           2.9490    -1.3200     1.5240 ca         1 89G      -0.149000
      5 C8           2.8700    -0.5730    -0.7920 ca         1 89G      -0.149000
      6 C10         -0.3870     1.6570    -0.1960 ca         1 89G      -0.117900
      7 C13         -2.4340    -1.5700    -0.2900 cc         1 89G      -0.413200
      8 C15         -1.4040    -0.6780    -0.5520 cd         1 89G       0.111500
      9 C1           4.5790    -2.1530    -0.0790 ca         1 89G      -0.135000
     10 C2           0.2900     3.8650    -0.9970 ca         1 89G      -0.131000
     11 C3           4.0620    -2.1260     1.2280 ca         1 89G      -0.087500
     12 C9           1.9400     2.3810    -0.0070 ca         1 89G      -0.158000
     13 C11          2.3570    -0.5350     0.5210 ca         1 89G       0.129100
     14 C12          0.9450     1.4050     0.1970 ca         1 89G       0.147100
     15 C14         -1.4410     0.6560     0.0350 cd         1 89G       0.400200
     16 C16         -3.5720    -1.1920     0.5520 c          1 89G       0.553200
     17 C18         -0.2320    -2.3380    -1.9470 c3         1 89G       0.142900
     18 N19         -2.4750     1.0420     0.7890 nc         1 89G      -0.402300
     19 N20         -3.4980     0.1380     1.0360 n          1 89G      -0.128800
     20 O21         -4.4940    -1.9560     0.8020 o          1 89G      -0.552000
     21 O22          1.2560     0.2280     0.8420 os         1 89G      -0.249200
     22 H1           4.3790    -1.4080    -2.1030 ha         1 89G       0.114000
     23 H2           2.3860     4.3580    -0.7700 ha         1 89G       0.116000
     24 H3          -1.7330     3.1120    -1.0820 ha         1 89G       0.124000
     25 H4           2.5460    -1.3000     2.5340 ha         1 89G       0.129500
     26 H5           2.4060     0.0110    -1.5830 ha         1 89G       0.129500
     27 H6          -2.4810    -2.5780    -0.6810 ha         1 89G       0.216000
     28 H7          -4.6730     0.0360     2.7920 h1         1 89G       0.057367
     29 H8          -4.4010     1.6910     2.1800 h1         1 89G       0.057367
     30 H9          -5.5390     0.6050     1.3350 h1         1 89G       0.057367
     31 H10          5.4400    -2.7780    -0.3100 ha         1 89G       0.116000
     32 H11          0.0350     4.8170    -1.4580 ha         1 89G       0.119000
     33 H12          4.5220    -2.7290     2.0080 ha         1 89G       0.114000
     34 H13          2.9620     2.1920     0.3130 ha         1 89G       0.130000
     35 H14         -1.0840    -2.5580    -2.6020 h1         1 89G       0.050700
     36 H15          0.6830    -2.4040    -2.5490 h1         1 89G       0.050700
     37 H16         -0.1770    -3.1050    -1.1640 h1         1 89G       0.050700
     38 O23         -0.3510    -1.0250    -1.3700 os         1 89G      -0.315100
     39 C17         -4.5920     0.6500     1.8870 c3         1 89G       0.098300
@<TRIPOS>BOND
     1     1     5 ar  
     2     1     9 ar  
     3     1    22 1   
     4     2    10 ar  
     5     2    12 ar  
     6     2    23 1   
     7     3     6 ar  
     8     3    10 ar  
     9     3    24 1   
    10     4    11 ar  
    11     4    13 ar  
    12     4    25 1   
    13     5    13 ar  
    14     5    26 1   
    15     6    14 ar  
    16     6    15 1   
    17     7     8 2   
    18     7    16 1   
    19     7    27 1   
    20     8    15 1   
    21     8    38 1   
    22     9    11 ar  
    23     9    31 1   
    24    10    32 1   
    25    11    33 1   
    26    12    14 ar  
    27    12    34 1   
    28    13    21 1   
    29    14    21 1   
    30    15    18 2   
    31    16    19 1   
    32    16    20 2   
    33    17    35 1   
    34    17    36 1   
    35    17    37 1   
    36    17    38 1   
    37    18    19 1   
    38    19    39 1   
    39    28    39 1   
    40    29    39 1   
    41    30    39 1   
@<TRIPOS>SUBSTRUCTURE
     1 89G         1 TEMP              0 ****  ****    0 ROOT
