@<TRIPOS>MOLECULE
89G
   39    41     1     0     0
SMALL
abcg2


@<TRIPOS>ATOM
      1 C4           3.9190    -1.4060    -1.0530 ca         1 89G      -0.087500
      2 C5           1.5690     3.5640    -0.6440 ca         1 89G      -0.079000
      3 C6          -0.7180     2.8550    -0.7720 ca         1 89G      -0.061000
      4 C7           2.8430    -1.2990     1.5010 ca         1 89G      -0.149000
      5 C8           2.8330    -0.5790    -0.8030 ca         1 89G      -0.149000
      6 C10         -0.3840     1.6250    -0.2100 ca         1 89G      -0.117900
      7 C13         -2.3720    -1.5750    -0.2760 cc         1 89G      -0.413200
      8 C15         -1.3680    -0.7010    -0.5490 cd         1 89G       0.111500
      9 C1           4.4700    -2.1820    -0.0430 ca         1 89G      -0.135000
     10 C2           0.2510     3.8200    -0.9980 ca         1 89G      -0.131000
     11 C3           3.9220    -2.1280     1.2320 ca         1 89G      -0.087500
     12 C9           1.9190     2.3550    -0.0620 ca         1 89G      -0.158000
     13 C11          2.3010    -0.5270     0.4810 ca         1 89G       0.129100
     14 C12          0.9420     1.3910     0.1500 ca         1 89G       0.147100
     15 C14         -1.4260     0.6100     0.0430 cd         1 89G       0.400200
     16 C16         -3.4710    -1.1830     0.5590 c          1 89G       0.553200
     17 C18         -0.1760    -2.2060    -1.9200 c3         1 89G       0.142900
     18 N19         -2.4220     0.9630     0.7850 nc         1 89G      -0.402300
     19 N20         -3.4040     0.1160     1.0330 n          1 89G      -0.128800
     20 O21         -4.4240    -1.8970     0.8520 o          1 89G      -0.552000
     21 O22          1.2070     0.2250     0.8020 os         1 89G      -0.249200
     22 H1           4.3310    -1.4440    -2.0530 ha         1 89G       0.114000
     23 H2           2.3330     4.3120    -0.8100 ha         1 89G       0.116000
     24 H3          -1.7470     3.0450    -1.0480 ha         1 89G       0.124000
     25 H4           2.4180    -1.2520     2.4950 ha         1 89G       0.129500
     26 H5           2.4090     0.0100    -1.6050 ha         1 89G       0.129500
     27 H6          -2.4040    -2.5760    -0.6830 ha         1 89G       0.216000
     28 H7          -4.5920    -0.0160     2.7610 h1         1 89G       0.057367
     29 H8          -4.2240     1.6190     2.1820 h1         1 89G       0.057367
     30 H9          -5.4220     0.6240     1.3340 h1         1 89G       0.057367
     31 H10          5.3170    -2.8240    -0.2460 ha         1 89G       0.116000
     32 H11         -0.0220     4.7650    -1.4460 ha         1 89G       0.119000
     33 H12          4.3400    -2.7300     2.0290 ha         1 89G       0.114000
     34 H13          2.9430     2.1720     0.2360 ha         1 89G       0.130000
     35 H14         -1.0080    -2.4420    -2.5870 h1         1 89G       0.050700
     36 H15          0.7450    -2.1710    -2.4940 h1         1 89G       0.050700
     37 H16         -0.0920    -2.9810    -1.1550 h1         1 89G       0.050700
     38 O23         -0.3300    -0.9200    -1.3380 os         1 89G      -0.315100
     39 C17         -4.4780     0.6100     1.8770 c3         1 89G       0.098300
@<TRIPOS>BOND
     1     1     5 ar  
     2     1     9 ar  
     3     1    22 1   
     4     2    10 ar  
     5     2    12 ar  
     6     2    23 1   
     7     3     6 ar  
     8     3    10 ar  
     9     3    24 1   
    10     4    11 ar  
    11     4    13 ar  
    12     4    25 1   
    13     5    13 ar  
    14     5    26 1   
    15     6    14 ar  
    16     6    15 1   
    17     7     8 2   
    18     7    16 1   
    19     7    27 1   
    20     8    15 1   
    21     8    38 1   
    22     9    11 ar  
    23     9    31 1   
    24    10    32 1   
    25    11    33 1   
    26    12    14 ar  
    27    12    34 1   
    28    13    21 1   
    29    14    21 1   
    30    15    18 2   
    31    16    19 1   
    32    16    20 2   
    33    17    35 1   
    34    17    36 1   
    35    17    37 1   
    36    17    38 1   
    37    18    19 1   
    38    19    39 1   
    39    28    39 1   
    40    29    39 1   
    41    30    39 1   
@<TRIPOS>SUBSTRUCTURE
     1 89G         1 TEMP              0 ****  ****    0 ROOT
