@<TRIPOS>MOLECULE
89H
   27    29     1     0     0
SMALL
No Charge or Current Charge


@<TRIPOS>ATOM
      1 C4          13.8200   -15.2560   -10.7930 ca         1 89H      -0.160000
      2 C5          13.6600   -14.9130    -9.4330 ca         1 89H       0.181100
      3 C6          11.2140   -15.2320    -9.4960 c3         1 89H       0.195600
      4 C11         16.0640   -14.5620    -9.2480 ca         1 89H      -0.012000
      5 C7          10.0790   -15.1020    -8.4890 cx         1 89H      -0.142700
      6 C8           8.6730   -14.7740    -8.9380 cx         1 89H      -0.117900
      7 C9           9.4740   -13.7550    -8.1620 cx         1 89H      -0.117900
      8 C10         14.7840   -14.5680    -8.6690 ca         1 89H      -0.139000
      9 C12         16.2240   -14.9040   -10.6060 ca         1 89H      -0.198600
     10 N1          17.6070   -15.2640   -12.6040 nc         1 89H      -0.174400
     11 N2          16.6150   -15.6040   -13.4120 nd         1 89H      -0.174400
     12 C3          15.1050   -15.2530   -11.3860 ca         1 89H      -0.096600
     13 C1          17.5730   -14.9090   -11.2600 c          1 89H       0.635100
     14 C2          15.3040   -15.6170   -12.8450 c          1 89H       0.622100
     15 O2          14.3530   -15.9250   -13.5510 o          1 89H      -0.440100
     16 O3          12.4300   -14.9000    -8.8070 os         1 89H      -0.342100
     17 H1          12.9600   -15.5260   -11.4000 ha         1 89H       0.144000
     18 H2          11.0460   -14.5480   -10.3390 h1         1 89H       0.047700
     19 H3          11.2480   -16.2600    -9.8780 h1         1 89H       0.047700
     20 H4          16.9250   -14.2910    -8.6380 ha         1 89H       0.144000
     21 H5          10.1750   -15.8090    -7.6680 hc         1 89H       0.093700
     22 H6           8.5020   -14.5840    -9.9950 hc         1 89H       0.076700
     23 H7           7.8490   -15.2680    -8.4270 hc         1 89H       0.076700
     24 H8           9.8440   -12.8840    -8.6990 hc         1 89H       0.076700
     25 H9           9.1900   -13.5640    -7.1290 hc         1 89H       0.076700
     26 H10         14.6620   -14.3040    -7.6220 ha         1 89H       0.142000
     27 O1          18.5880   -14.6170   -10.6420 o          1 89H      -0.446100
@<TRIPOS>BOND
     1     1     2 ar  
     2     1    12 ar  
     3     1    17 1   
     4     2     8 ar  
     5     2    16 1   
     6     3     5 1   
     7     3    16 1   
     8     3    18 1   
     9     3    19 1   
    10     4     8 ar  
    11     4     9 ar  
    12     4    20 1   
    13     5     6 1   
    14     5     7 1   
    15     5    21 1   
    16     6     7 1   
    17     6    22 1   
    18     6    23 1   
    19     7    24 1   
    20     7    25 1   
    21     8    26 1   
    22     9    12 ar  
    23     9    13 1   
    24    10    11 2   
    25    10    13 1   
    26    11    14 1   
    27    12    14 1   
    28    13    27 2   
    29    14    15 2   
@<TRIPOS>SUBSTRUCTURE
     1 89H         1 TEMP              0 ****  ****    0 ROOT
