@<TRIPOS>MOLECULE
89H
   27    29     1     0     0
SMALL
abcg2


@<TRIPOS>ATOM
      1 C4          13.7700   -15.2320   -10.7620 ca         1 89H      -0.160000
      2 C5          13.6400   -14.9010    -9.4100 ca         1 89H       0.181100
      3 C6          11.2570   -15.2250    -9.4460 c3         1 89H       0.195600
      4 C11         16.0310   -14.5720    -9.2410 ca         1 89H      -0.012000
      5 C7          10.1260   -15.1150    -8.4780 cx         1 89H      -0.142700
      6 C8           8.7560   -14.7960    -9.0140 cx         1 89H      -0.117900
      7 C9           9.5080   -13.7710    -8.2100 cx         1 89H      -0.117900
      8 C10         14.7840   -14.5710    -8.6590 ca         1 89H      -0.139000
      9 C12         16.1730   -14.9080   -10.5930 ca         1 89H      -0.198600
     10 N1          17.5620   -15.3410   -12.6650 nc         1 89H      -0.174400
     11 N2          16.5630   -15.6280   -13.3310 nd         1 89H      -0.174400
     12 C3          15.0340   -15.2340   -11.3380 ca         1 89H      -0.096600
     13 C1          17.4680   -14.9180   -11.2420 c          1 89H       0.635100
     14 C2          15.1980   -15.5670   -12.7530 c          1 89H       0.622100
     15 O2          14.3060   -15.8100   -13.5260 o          1 89H      -0.440100
     16 O3          12.4770   -14.8670    -8.7500 os         1 89H      -0.342100
     17 H1          12.9150   -15.4860   -11.3700 ha         1 89H       0.144000
     18 H2          11.1170   -14.5430   -10.2880 h1         1 89H       0.047700
     19 H3          11.3630   -16.2440    -9.8260 h1         1 89H       0.047700
     20 H4          16.9070   -14.3160    -8.6610 ha         1 89H       0.144000
     21 H5          10.1720   -15.8090    -7.6470 hc         1 89H       0.093700
     22 H6           8.6590   -14.6310   -10.0790 hc         1 89H       0.076700
     23 H7           7.9120   -15.2920    -8.5540 hc         1 89H       0.076700
     24 H8           9.9190   -12.9190    -8.7380 hc         1 89H       0.076700
     25 H9           9.1710   -13.5610    -7.2030 hc         1 89H       0.076700
     26 H10         14.6590   -14.3180    -7.6140 ha         1 89H       0.142000
     27 O1          18.5250   -14.6170   -10.7390 o          1 89H      -0.446100
@<TRIPOS>BOND
     1     1     2 ar  
     2     1    12 ar  
     3     1    17 1   
     4     2     8 ar  
     5     2    16 1   
     6     3     5 1   
     7     3    16 1   
     8     3    18 1   
     9     3    19 1   
    10     4     8 ar  
    11     4     9 ar  
    12     4    20 1   
    13     5     6 1   
    14     5     7 1   
    15     5    21 1   
    16     6     7 1   
    17     6    22 1   
    18     6    23 1   
    19     7    24 1   
    20     7    25 1   
    21     8    26 1   
    22     9    12 ar  
    23     9    13 1   
    24    10    11 2   
    25    10    13 1   
    26    11    14 1   
    27    12    14 1   
    28    13    27 2   
    29    14    15 2   
@<TRIPOS>SUBSTRUCTURE
     1 89H         1 TEMP              0 ****  ****    0 ROOT
