@<TRIPOS>MOLECULE
89I
   54    57     1     0     0
SMALL
No Charge or Current Charge


@<TRIPOS>ATOM
      1 C1           7.5320    -2.3010     7.4690 ca         1 89I       0.161900
      2 N2           6.4590    -2.3720     6.6590 nb         1 89I      -0.205000
      3 C3           6.5750    -1.7950     5.4470 ca         1 89I       0.280000
      4 C4           7.7670    -1.1390     5.0310 cp         1 89I      -0.179000
      5 C5           8.8150    -1.1360     5.9840 ca         1 89I       0.385900
      6 N6           8.7090    -1.7100     7.1900 nb         1 89I      -0.270000
      7 C8           7.9000    -0.4930     3.6840 cp         1 89I      -0.094000
      8 C9           8.1770     0.8880     3.5640 ca         1 89I      -0.048500
      9 C10          8.2800     1.4970     2.3020 ca         1 89I      -0.202000
     10 C11          8.1080     0.7460     1.1230 ca         1 89I       0.347000
     11 C12          7.8350    -0.6310     1.2350 ca         1 89I      -0.202000
     12 C13          7.7340    -1.2420     2.4960 ca         1 89I      -0.048500
     13 C18          2.0840    -2.4760     3.3980 ca         1 89I       0.423900
     14 N19          0.9980    -2.5340     2.5920 nb         1 89I      -0.759000
     15 C20          1.1160    -2.0600     1.3400 ca         1 89I       0.633900
     16 C21          2.3170    -1.5130     0.8480 ca         1 89I      -0.240000
     17 C22          3.4430    -1.4530     1.6830 ca         1 89I      -0.010000
     18 C23          3.3240    -1.9460     2.9900 ca         1 89I      -0.097000
     19 C27         -0.1780    -1.4110    -0.7390 c6         1 89I       0.181800
     20 C28         -1.6550    -1.2170    -1.1930 c6         1 89I       0.141100
     21 O29         -2.3720    -2.4720    -1.1670 os         1 89I      -0.442000
     22 C30         -2.4100    -3.0520     0.1560 c6         1 89I       0.141100
     23 C31         -0.9720    -3.3390     0.6800 c6         1 89I       0.181800
     24 N32         -0.0600    -2.1450     0.5650 nh         1 89I      -0.773300
     25 C41          5.4070    -1.8670     4.6160 cg         1 89I      -0.222000
     26 C42          4.4350    -1.9110     3.8800 ch         1 89I      -0.056000
     27 N43          8.2040     1.3630    -0.1510 nh         1 89I      -0.835400
     28 C44          9.0430     2.5660    -0.3670 c3         1 89I       0.222600
     29 C48          7.4620     0.8400    -1.3220 c3         1 89I       0.222600
     30 N52         10.0280    -0.5720     5.7370 nv         1 89I      -1.068900
     31 H1           7.4380    -2.7680     8.4480 h5         1 89I       0.046100
     32 H9           8.2980     1.4920     4.4610 ha         1 89I       0.115500
     33 H10          8.4780     2.5630     2.2500 ha         1 89I       0.112500
     34 H12          7.7090    -1.2400     0.3470 ha         1 89I       0.112500
     35 H13          7.5260    -2.3080     2.5570 ha         1 89I       0.115500
     36 H21          2.3910    -1.1470    -0.1690 ha         1 89I       0.120000
     37 H22          4.3830    -1.0370     1.3220 ha         1 89I       0.125000
     38 H311        -1.0670    -3.6750     1.7230 h1         1 89I       0.058950
     39 H312        -0.5530    -4.1810     0.1100 h1         1 89I       0.058950
     40 H301        -2.9870    -3.9870     0.1230 h1         1 89I       0.054700
     41 H302        -2.9240    -2.3610     0.8390 h1         1 89I       0.054700
     42 H281        -2.1580    -0.5000    -0.5290 h1         1 89I       0.054700
     43 H282        -1.6800    -0.8090    -2.2130 h1         1 89I       0.054700
     44 H271         0.3640    -1.9560    -1.5260 h1         1 89I       0.058950
     45 H272         0.2760    -0.4120    -0.6590 h1         1 89I       0.058950
     46 H441         9.3540     2.6410    -1.4180 h1         1 89I       0.035367
     47 H442         9.9540     2.5160     0.2440 h1         1 89I       0.035367
     48 H443         8.4880     3.4760    -0.1020 h1         1 89I       0.035367
     49 H481         8.0270     0.0330    -1.8080 h1         1 89I       0.035367
     50 H482         7.2850     1.6340    -2.0590 h1         1 89I       0.035367
     51 H483         6.4820     0.4500    -1.0150 h1         1 89I       0.035367
     52 H521        10.8040    -0.8040     6.3540 hn         1 89I       0.495000
     53 H522        10.2610    -0.3290     4.7780 hn         1 89I       0.495000
     54 H18          1.9540    -2.8690     4.4060 h4         1 89I       0.027100
@<TRIPOS>BOND
     1     1     2 ar  
     2     1     6 ar  
     3     1    31 1   
     4     2     3 ar  
     5     3     4 ar  
     6     3    25 1   
     7     4     5 ar  
     8     4     7 1   
     9     5     6 ar  
    10     5    30 1   
    11     7     8 ar  
    12     7    12 ar  
    13     8     9 ar  
    14     8    32 1   
    15     9    10 ar  
    16     9    33 1   
    17    10    11 ar  
    18    10    27 1   
    19    11    12 ar  
    20    11    34 1   
    21    12    35 1   
    22    13    14 ar  
    23    13    18 ar  
    24    13    54 1   
    25    14    15 ar  
    26    15    16 ar  
    27    15    24 1   
    28    16    17 ar  
    29    16    36 1   
    30    17    18 ar  
    31    17    37 1   
    32    18    26 1   
    33    19    20 1   
    34    19    24 1   
    35    19    44 1   
    36    19    45 1   
    37    20    21 1   
    38    20    42 1   
    39    20    43 1   
    40    21    22 1   
    41    22    23 1   
    42    22    40 1   
    43    22    41 1   
    44    23    24 1   
    45    23    38 1   
    46    23    39 1   
    47    25    26 3   
    48    27    28 1   
    49    27    29 1   
    50    28    46 1   
    51    28    47 1   
    52    28    48 1   
    53    29    49 1   
    54    29    50 1   
    55    29    51 1   
    56    30    52 1   
    57    30    53 1   
@<TRIPOS>SUBSTRUCTURE
     1 89I         1 TEMP              0 ****  ****    0 ROOT
