@<TRIPOS>MOLECULE
89I
   54    57     1     0     0
SMALL
abcg2


@<TRIPOS>ATOM
      1 C1           7.5870    -2.4110     7.3600 ca         1 89I       0.161900
      2 N2           6.5090    -2.4620     6.6080 nb         1 89I      -0.205000
      3 C3           6.6090    -1.8540     5.4110 ca         1 89I       0.280000
      4 C4           7.7600    -1.2130     4.9750 cp         1 89I      -0.179000
      5 C5           8.8500    -1.2450     5.8810 ca         1 89I       0.385900
      6 N6           8.7450    -1.8450     7.0700 nb         1 89I      -0.270000
      7 C8           7.8500    -0.5490     3.6630 cp         1 89I      -0.094000
      8 C9           8.0910     0.8210     3.5580 ca         1 89I      -0.048500
      9 C10          8.1420     1.4610     2.3340 ca         1 89I      -0.202000
     10 C11          7.9540     0.7490     1.1330 ca         1 89I       0.347000
     11 C12          7.7090    -0.6350     1.2410 ca         1 89I      -0.202000
     12 C13          7.6640    -1.2560     2.4750 ca         1 89I      -0.048500
     13 C18          2.1580    -2.4970     3.3300 ca         1 89I       0.423900
     14 N19          1.1160    -2.5640     2.5270 nb         1 89I      -0.759000
     15 C20          1.2020    -2.0830     1.2810 ca         1 89I       0.633900
     16 C21          2.4130    -1.5210     0.8110 ca         1 89I      -0.240000
     17 C22          3.4890    -1.4580     1.6570 ca         1 89I      -0.010000
     18 C23          3.3890    -1.9520     2.9670 ca         1 89I      -0.097000
     19 C27          0.1020    -1.8710    -0.9070 c6         1 89I       0.181800
     20 C28         -1.2610    -1.3920    -1.3760 c6         1 89I       0.141100
     21 O29         -2.2870    -2.2880    -1.0260 os         1 89I      -0.442000
     22 C30         -2.3410    -2.4360     0.3750 c6         1 89I       0.141100
     23 C31         -1.0410    -2.9800     0.9340 c6         1 89I       0.181800
     24 N32          0.0790    -2.1490     0.5180 nh         1 89I      -0.773300
     25 C41          5.4520    -1.8880     4.5810 cg         1 89I      -0.222000
     26 C42          4.4830    -1.9210     3.8600 ch         1 89I      -0.056000
     27 N43          8.0080     1.3690    -0.0800 nh         1 89I      -0.835400
     28 C44          8.2380     2.7920    -0.1540 c3         1 89I       0.222600
     29 C48          7.7300     0.6240    -1.2840 c3         1 89I       0.222600
     30 N52         10.0250    -0.6660     5.5880 nv         1 89I      -1.068900
     31 H1           7.5220    -2.8930     8.3310 h5         1 89I       0.046100
     32 H9           8.2240     1.4140     4.4560 ha         1 89I       0.115500
     33 H10          8.3210     2.5270     2.3210 ha         1 89I       0.112500
     34 H12          7.5610    -1.2410     0.3590 ha         1 89I       0.112500
     35 H13          7.4800    -2.3230     2.5100 ha         1 89I       0.115500
     36 H21          2.5170    -1.1470    -0.1960 ha         1 89I       0.120000
     37 H22          4.4230    -1.0340     1.3110 ha         1 89I       0.125000
     38 H311        -1.1020    -2.9970     2.0180 h1         1 89I       0.058950
     39 H312        -0.8890    -4.0130     0.5970 h1         1 89I       0.058950
     40 H301        -3.1510    -3.1280     0.6050 h1         1 89I       0.054700
     41 H302        -2.5690    -1.4720     0.8520 h1         1 89I       0.054700
     42 H281        -1.4590    -0.3980    -0.9530 h1         1 89I       0.054700
     43 H282        -1.2540    -1.3000    -2.4630 h1         1 89I       0.054700
     44 H271         0.4080    -2.7640    -1.4670 h1         1 89I       0.058950
     45 H272         0.8140    -1.0810    -1.1360 h1         1 89I       0.058950
     46 H441         8.2960     3.0930    -1.1960 h1         1 89I       0.035367
     47 H442         9.1790     3.0770     0.3230 h1         1 89I       0.035367
     48 H443         7.4360     3.3720     0.3160 h1         1 89I       0.035367
     49 H481         8.4520    -0.1810    -1.4460 h1         1 89I       0.035367
     50 H482         7.7850     1.2900    -2.1410 h1         1 89I       0.035367
     51 H483         6.7310     0.1780    -1.2750 h1         1 89I       0.035367
     52 H521        10.8130    -0.8530     6.1850 hn         1 89I       0.495000
     53 H522        10.2250    -0.3650     4.6490 hn         1 89I       0.495000
     54 H18          2.0230    -2.9040     4.3270 h4         1 89I       0.027100
@<TRIPOS>BOND
     1     1     2 ar  
     2     1     6 ar  
     3     1    31 1   
     4     2     3 ar  
     5     3     4 ar  
     6     3    25 1   
     7     4     5 ar  
     8     4     7 1   
     9     5     6 ar  
    10     5    30 1   
    11     7     8 ar  
    12     7    12 ar  
    13     8     9 ar  
    14     8    32 1   
    15     9    10 ar  
    16     9    33 1   
    17    10    11 ar  
    18    10    27 1   
    19    11    12 ar  
    20    11    34 1   
    21    12    35 1   
    22    13    14 ar  
    23    13    18 ar  
    24    13    54 1   
    25    14    15 ar  
    26    15    16 ar  
    27    15    24 1   
    28    16    17 ar  
    29    16    36 1   
    30    17    18 ar  
    31    17    37 1   
    32    18    26 1   
    33    19    20 1   
    34    19    24 1   
    35    19    44 1   
    36    19    45 1   
    37    20    21 1   
    38    20    42 1   
    39    20    43 1   
    40    21    22 1   
    41    22    23 1   
    42    22    40 1   
    43    22    41 1   
    44    23    24 1   
    45    23    38 1   
    46    23    39 1   
    47    25    26 3   
    48    27    28 1   
    49    27    29 1   
    50    28    46 1   
    51    28    47 1   
    52    28    48 1   
    53    29    49 1   
    54    29    50 1   
    55    29    51 1   
    56    30    52 1   
    57    30    53 1   
@<TRIPOS>SUBSTRUCTURE
     1 89I         1 TEMP              0 ****  ****    0 ROOT
