@<TRIPOS>MOLECULE
89J
   29    30     1     0     0
SMALL
abcg2


@<TRIPOS>ATOM
      1 C4          -2.0360    -1.1580     0.8200 ca         1 89J      -0.092500
      2 C5          -2.1860     0.4320    -0.9780 ca         1 89J      -0.092500
      3 C6          -1.4090    -0.2860    -0.0680 ca         1 89J      -0.117900
      4 C7           2.1050     1.1040     0.0610 cc         1 89J      -0.429200
      5 C8           0.0660    -0.1600    -0.0680 cd         1 89J       0.355200
      6 C10          2.8330    -0.1070    -0.1110 c          1 89J       0.557200
      7 C1          -4.1830    -0.5890    -0.1060 ca         1 89J      -0.101000
      8 C2          -3.4150    -1.3080     0.8010 ca         1 89J      -0.112500
      9 C3          -3.5660     0.2790    -0.9960 ca         1 89J      -0.112500
     10 C9           0.7310     1.1170     0.0990 cd         1 89J       0.149400
     11 C12          0.6020     3.5160     0.5450 c3         1 89J       0.210100
     12 N13          0.7320    -1.2570    -0.1970 nc         1 89J      -0.400300
     13 N14          2.0510    -1.2500    -0.2090 n          1 89J      -0.129800
     14 N15          0.0070     2.2300     0.2910 nu         1 89J      -0.820200
     15 O16          4.0590    -0.2060    -0.1640 o          1 89J      -0.563000
     16 H1          -1.4400    -1.7130     1.5330 ha         1 89J       0.122000
     17 H2          -1.7140     1.0950    -1.6920 ha         1 89J       0.122000
     18 H3           2.6840     2.0090     0.1800 ha         1 89J       0.211000
     19 H4          -5.2580    -0.7070    -0.1200 ha         1 89J       0.115000
     20 H5          -3.8910    -1.9860     1.4980 ha         1 89J       0.116500
     21 H6          -4.1570     0.8340    -1.7120 ha         1 89J       0.116500
     22 H7           3.3930    -2.7300     0.4420 h1         1 89J       0.055700
     23 H8           1.9320    -3.3010    -0.3810 h1         1 89J       0.055700
     24 H9           3.2530    -2.5770    -1.3140 h1         1 89J       0.055700
     25 H10          1.2180     3.5130     1.4490 h1         1 89J       0.042700
     26 H11          1.2270     3.8380    -0.2900 h1         1 89J       0.042700
     27 H12         -0.1920     4.2450     0.6740 h1         1 89J       0.042700
     28 H13         -0.9850     2.1410     0.4330 hn         1 89J       0.503000
     29 C11          2.7010    -2.5370    -0.3760 c3         1 89J       0.100300
@<TRIPOS>BOND
     1     1     3 ar  
     2     1     8 ar  
     3     1    16 1   
     4     2     3 ar  
     5     2     9 ar  
     6     2    17 1   
     7     3     5 1   
     8     4     6 1   
     9     4    10 2   
    10     4    18 1   
    11     5    10 1   
    12     5    12 2   
    13     6    13 1   
    14     6    15 2   
    15     7     8 ar  
    16     7     9 ar  
    17     7    19 1   
    18     8    20 1   
    19     9    21 1   
    20    10    14 1   
    21    11    14 1   
    22    11    25 1   
    23    11    26 1   
    24    11    27 1   
    25    12    13 1   
    26    13    29 1   
    27    14    28 1   
    28    22    29 1   
    29    23    29 1   
    30    24    29 1   
@<TRIPOS>SUBSTRUCTURE
     1 89J         1 TEMP              0 ****  ****    0 ROOT
