@<TRIPOS>MOLECULE
89J
   29    30     1     0     0
SMALL
No Charge or Current Charge


@<TRIPOS>ATOM
      1 C4          -2.0740    -1.2700     0.7680 ca         1 89J      -0.092500
      2 C5          -2.2210     0.4950    -0.8990 ca         1 89J      -0.092500
      3 C6          -1.4340    -0.3050    -0.0410 ca         1 89J      -0.117900
      4 C7           2.1170     1.0950     0.0810 cc         1 89J      -0.429200
      5 C8           0.0410    -0.1920    -0.0480 cd         1 89J       0.355200
      6 C10          2.8990    -0.1320    -0.0840 c          1 89J       0.557200
      7 C1          -4.2480    -0.5820    -0.0860 ca         1 89J      -0.101000
      8 C2          -3.4740    -1.4010     0.7510 ca         1 89J      -0.112500
      9 C3          -3.6200     0.3620    -0.9150 ca         1 89J      -0.112500
     10 C9           0.7390     1.0940     0.1090 cd         1 89J       0.149400
     11 C12          0.6090     3.6300     0.4670 c3         1 89J       0.210100
     12 N13          0.7190    -1.3360    -0.1810 nc         1 89J      -0.400300
     13 N14          2.1020    -1.2950    -0.2000 n          1 89J      -0.129800
     14 N15          0.0460     2.2760     0.3090 nu         1 89J      -0.820200
     15 O16          4.1230    -0.1390    -0.1120 o          1 89J      -0.563000
     16 H1          -1.4860    -1.9140     1.4190 ha         1 89J       0.122000
     17 H2          -1.7470     1.2120    -1.5670 ha         1 89J       0.122000
     18 H3           2.7070     1.9950     0.1880 ha         1 89J       0.211000
     19 H4          -5.3310    -0.6850    -0.1000 ha         1 89J       0.115000
     20 H5          -3.9580    -2.1400     1.3860 ha         1 89J       0.116500
     21 H6          -4.2170     0.9870    -1.5760 ha         1 89J       0.116500
     22 H7           3.4150    -2.7960     0.5060 h1         1 89J       0.055700
     23 H8           2.0240    -3.4100    -0.4300 h1         1 89J       0.055700
     24 H9           3.3750    -2.6000    -1.2710 h1         1 89J       0.055700
     25 H10          1.2570     3.6760     1.3530 h1         1 89J       0.042700
     26 H11          1.2010     3.9070    -0.4160 h1         1 89J       0.042700
     27 H12         -0.1950     4.3680     0.5880 h1         1 89J       0.042700
     28 H13         -0.9710     2.1840     0.4040 hn         1 89J       0.503000
     29 C11          2.7670    -2.6050    -0.3580 c3         1 89J       0.100300
@<TRIPOS>BOND
     1     1     3 ar  
     2     1     8 ar  
     3     1    16 1   
     4     2     3 ar  
     5     2     9 ar  
     6     2    17 1   
     7     3     5 1   
     8     4     6 1   
     9     4    10 2   
    10     4    18 1   
    11     5    10 1   
    12     5    12 2   
    13     6    13 1   
    14     6    15 2   
    15     7     8 ar  
    16     7     9 ar  
    17     7    19 1   
    18     8    20 1   
    19     9    21 1   
    20    10    14 1   
    21    11    14 1   
    22    11    25 1   
    23    11    26 1   
    24    11    27 1   
    25    12    13 1   
    26    13    29 1   
    27    14    28 1   
    28    22    29 1   
    29    23    29 1   
    30    24    29 1   
@<TRIPOS>SUBSTRUCTURE
     1 89J         1 TEMP              0 ****  ****    0 ROOT
