@<TRIPOS>MOLECULE
89L
   58    60     1     0     0
SMALL
bcc


@<TRIPOS>ATOM
      1 C4          -1.0750     0.9420     0.5100 ca         1 89L      -0.098500
      2 C5          -2.1260     1.7660     0.1460 ca         1 89L      -0.109000
      3 C6          -3.4460     1.3560     0.3470 ca         1 89L      -0.127500
      4 C7          -4.5710     2.1980    -0.0190 cc         1 89L       0.314200
      5 C8          -5.9180     2.0660     0.1410 cd         1 89L      -0.278300
      6 C10         -5.4800     3.9790    -0.8940 cc         1 89L       0.235600
      7 C13         -2.6180    -0.7210     1.2700 ca         1 89L      -0.098500
      8 C15         -0.9610    -3.1040     0.2910 c3         1 89L       0.097300
      9 C17          1.8110    -4.0220     0.7670 ca         1 89L      -0.143300
     10 C20          3.3560    -5.5080    -1.0220 ca         1 89L      -0.091000
     11 C21          3.2560    -4.1300    -1.1740 ca         1 89L      -0.228000
     12 C22          2.4910    -3.3830    -0.2820 ca         1 89L       0.174100
     13 C24          2.7530    -1.3650    -1.5380 c3         1 89L       0.190600
     14 C26          2.8080     1.1670    -1.3880 c2         1 89L      -0.041400
     15 C28          2.0210     2.4420    -1.2530 c3         1 89L      -0.039200
     16 O1           0.7300    -0.5460     2.1870 o          1 89L      -0.577100
     17 C3          -1.3020    -0.3190     1.0510 ca         1 89L      -0.142600
     18 C9          -6.5080     3.2290    -0.4300 cd         1 89L      -0.287300
     19 O11         -4.3080     3.3640    -0.6500 os         1 89L      -0.295800
     20 C12         -3.6730     0.1040     0.9260 ca         1 89L      -0.109000
     21 N14         -0.0540    -2.4230     1.1910 n          1 89L      -0.469800
     22 C16          0.9980    -3.2450     1.7700 c3         1 89L       0.153300
     23 C18          1.9250    -5.3990     0.8900 ca         1 89L      -0.093000
     24 C19          2.6940    -6.1520     0.0100 ca         1 89L      -0.184000
     25 O23          2.3520    -2.0480    -0.3520 os         1 89L      -0.302900
     26 C25          2.1630     0.0000    -1.4710 c2         1 89L      -0.240200
     27 C27          4.2990     1.3230    -1.3760 c3         1 89L      -0.062900
     28 C29          2.1220     3.0330     0.1520 c3         1 89L      -0.213400
     29 C30          1.1430     4.1850     0.4520 c          1 89L       0.927600
     30 O32          1.3930     4.8590     1.4720 o          1 89L      -0.845800
     31 O31          0.1730     4.3430    -0.3170 o          1 89L      -0.845800
     32 H1          -0.0630     1.2910     0.3620 ha         1 89L       0.150500
     33 H2          -1.8910     2.7360    -0.2730 ha         1 89L       0.159000
     34 H3          -6.4330     1.2440     0.6110 ha         1 89L       0.149000
     35 H4          -5.4320     4.9300    -1.4000 h4         1 89L       0.051100
     36 H5          -2.8340    -1.6810     1.7230 ha         1 89L       0.150500
     37 H6          -1.6670    -3.7390     0.8320 h1         1 89L       0.034700
     38 H7          -1.5180    -2.4020    -0.3180 h1         1 89L       0.034700
     39 H8          -0.3930    -3.7400    -0.3890 h1         1 89L       0.034700
     40 H9           3.9590    -6.0740    -1.7210 ha         1 89L       0.120000
     41 H10          3.7900    -3.6520    -1.9850 ha         1 89L       0.134000
     42 H11          3.8440    -1.3490    -1.6200 h1         1 89L       0.026200
     43 H12          2.3690    -1.9010    -2.4150 h1         1 89L       0.026200
     44 H13          2.3790     3.1790    -1.9800 hc         1 89L       0.048700
     45 H14          0.9730     2.2570    -1.4900 hc         1 89L       0.048700
     46 H15         -7.5560     3.4720    -0.4860 ha         1 89L       0.147000
     47 H16         -4.6830    -0.2360     1.1100 ha         1 89L       0.159000
     48 H17          0.5390    -3.9570     2.4640 h1         1 89L       0.060200
     49 H18          1.6440    -2.5980     2.3600 h1         1 89L       0.060200
     50 H19          1.3930    -5.8950     1.6940 ha         1 89L       0.123000
     51 H20          2.7690    -7.2240     0.1300 ha         1 89L       0.124000
     52 H21          1.0760     0.0180    -1.4710 ha         1 89L       0.130000
     53 H22          4.6360     1.7500    -0.4290 hc         1 89L       0.037033
     54 H23          4.8420     0.3930    -1.5270 hc         1 89L       0.037033
     55 H24          4.6100     2.0210    -2.1560 hc         1 89L       0.037033
     56 H25          1.9370     2.2410     0.8890 hc         1 89L       0.029700
     57 H26          3.1400     3.3770     0.3540 hc         1 89L       0.029700
     58 C2          -0.1200    -1.1140     1.5130 c          1 89L       0.688700
@<TRIPOS>BOND
     1     1     2 ar  
     2     1    17 ar  
     3     1    32 1   
     4     2     3 ar  
     5     2    33 1   
     6     3     4 1   
     7     3    20 ar  
     8     4     5 2   
     9     4    19 1   
    10     5    18 1   
    11     5    34 1   
    12     6    18 2   
    13     6    19 1   
    14     6    35 1   
    15     7    17 ar  
    16     7    20 ar  
    17     7    36 1   
    18     8    21 1   
    19     8    37 1   
    20     8    38 1   
    21     8    39 1   
    22     9    12 ar  
    23     9    22 1   
    24     9    23 ar  
    25    10    11 ar  
    26    10    24 ar  
    27    10    40 1   
    28    11    12 ar  
    29    11    41 1   
    30    12    25 1   
    31    13    25 1   
    32    13    26 1   
    33    13    42 1   
    34    13    43 1   
    35    14    15 1   
    36    14    26 2   
    37    14    27 1   
    38    15    28 1   
    39    15    44 1   
    40    15    45 1   
    41    16    58 2   
    42    17    58 1   
    43    18    46 1   
    44    20    47 1   
    45    21    22 1   
    46    21    58 1   
    47    22    48 1   
    48    22    49 1   
    49    23    24 ar  
    50    23    50 1   
    51    24    51 1   
    52    26    52 1   
    53    27    53 1   
    54    27    54 1   
    55    27    55 1   
    56    28    29 1   
    57    28    56 1   
    58    28    57 1   
    59    29    30 1   
    60    29    31 1   
@<TRIPOS>SUBSTRUCTURE
     1 89L         1 TEMP              0 ****  ****    0 ROOT
