@<TRIPOS>MOLECULE
89L
   58    60     1     0     0
SMALL
No Charge or Current Charge


@<TRIPOS>ATOM
      1 C4          -1.2960     1.0200     0.1850 ca         1 89L      -0.080500
      2 C5          -2.4710     1.7120    -0.1510 ca         1 89L      -0.091000
      3 C6          -3.7290     1.2600     0.3010 ca         1 89L      -0.127500
      4 C7          -4.9450     2.0010    -0.0620 cc         1 89L       0.204500
      5 C8          -6.2340     1.6290     0.2080 cd         1 89L      -0.195000
      6 C10         -6.2240     3.5740    -0.9140 cc         1 89L       0.125900
      7 C13         -2.6020    -0.5890     1.4450 ca         1 89L      -0.080500
      8 C15         -1.0420    -3.0690     0.5730 c3         1 89L       0.097300
      9 C17          1.8740    -3.8570     0.6370 ca         1 89L      -0.143300
     10 C20          3.0500    -5.4930    -1.3400 ca         1 89L      -0.073000
     11 C21          2.9620    -4.1050    -1.5380 ca         1 89L      -0.210000
     12 C22          2.3760    -3.2780    -0.5520 ca         1 89L       0.174100
     13 C24          2.6330    -1.2560    -1.9430 c3         1 89L       0.213800
     14 C26          3.1390     1.1160    -1.1060 c2         1 89L      -0.041400
     15 C28          2.8010     2.6030    -1.0620 c3         1 89L      -0.039200
     16 O1           0.9030    -0.2000     1.7050 o          1 89L      -0.577100
     17 C3          -1.3480    -0.1510     0.9670 ca         1 89L      -0.142600
     18 C9          -7.0510     2.6420    -0.3390 cd         1 89L      -0.204000
     19 O11         -4.9100     3.1890    -0.7530 os         1 89L      -0.207000
     20 C12         -3.7780     0.1040     1.1100 ca         1 89L      -0.091000
     21 N14         -0.0120    -2.2780     1.2920 n          1 89L      -0.402800
     22 C16          1.2150    -3.0020     1.7210 c3         1 89L       0.153300
     23 C18          1.9680    -5.2520     0.8240 ca         1 89L      -0.075000
     24 C19          2.5530    -6.0640    -0.1600 ca         1 89L      -0.166000
     25 O23          2.2750    -1.9100    -0.7190 os         1 89L      -0.326100
     26 C25          2.3740     0.2260    -1.7680 c2         1 89L      -0.290200
     27 C27          4.4360     0.7670    -0.3870 c3         1 89L      -0.062900
     28 C29          2.4230     3.1270     0.3470 c3         1 89L      -0.213400
     29 C30          1.9830     4.5970     0.2610 c          1 89L       0.717000
     30 O32          2.8410     5.4620     0.3610 o          1 89L      -0.740500
     31 O31          0.8050     4.8360     0.0440 o          1 89L      -0.740500
     32 H1          -0.3390     1.3870    -0.1790 ha         1 89L       0.132500
     33 H2          -2.3970     2.6060    -0.7670 ha         1 89L       0.141000
     34 H3          -6.5690     0.7400     0.7290 ha         1 89L       0.131000
     35 H4          -6.4220     4.4990    -1.4390 h4         1 89L       0.051100
     36 H5          -2.6700    -1.4530     2.1010 ha         1 89L       0.132500
     37 H6          -1.8440    -3.3500     1.2660 h1         1 89L       0.034700
     38 H7          -1.4600    -2.4880    -0.2580 h1         1 89L       0.034700
     39 H8          -0.6150    -3.9900     0.1590 h1         1 89L       0.034700
     40 H9           3.5030    -6.1250    -2.1010 ha         1 89L       0.102000
     41 H10          3.3560    -3.6910    -2.4610 ha         1 89L       0.116000
     42 H11          3.6890    -1.4270    -2.1870 h1         1 89L       0.026200
     43 H12          2.0250    -1.6390    -2.7730 h1         1 89L       0.026200
     44 H13          3.6450     3.1880    -1.4490 hc         1 89L       0.048700
     45 H14          1.9630     2.8100    -1.7390 hc         1 89L       0.048700
     46 H15         -8.1350     2.6840    -0.3160 ha         1 89L       0.129000
     47 H16         -4.7250    -0.2630     1.4990 ha         1 89L       0.141000
     48 H17          0.9410    -3.6420     2.5690 h1         1 89L       0.060200
     49 H18          1.9680    -2.2990     2.1010 h1         1 89L       0.060200
     50 H19          1.5830    -5.7090     1.7330 ha         1 89L       0.105000
     51 H20          2.6210    -7.1380    -0.0060 ha         1 89L       0.106000
     52 H21          1.4660     0.5580    -2.2710 ha         1 89L       0.180000
     53 H22          4.3560     0.9540     0.6900 hc         1 89L       0.037033
     54 H23          4.7140    -0.2860    -0.5040 hc         1 89L       0.037033
     55 H24          5.2720     1.3650    -0.7690 hc         1 89L       0.037033
     56 H25          1.5930     2.5000     0.6910 hc         1 89L       0.029700
     57 H26          3.3260     3.0420     0.9620 hc         1 89L       0.029700
     58 C2          -0.0570    -0.8590     1.3240 c          1 89L       0.621700
@<TRIPOS>BOND
     1     1     2 ar  
     2     1    17 ar  
     3     1    32 1   
     4     2     3 ar  
     5     2    33 1   
     6     3     4 1   
     7     3    20 ar  
     8     4     5 2   
     9     4    19 1   
    10     5    18 1   
    11     5    34 1   
    12     6    18 2   
    13     6    19 1   
    14     6    35 1   
    15     7    17 ar  
    16     7    20 ar  
    17     7    36 1   
    18     8    21 1   
    19     8    37 1   
    20     8    38 1   
    21     8    39 1   
    22     9    12 ar  
    23     9    22 1   
    24     9    23 ar  
    25    10    11 ar  
    26    10    24 ar  
    27    10    40 1   
    28    11    12 ar  
    29    11    41 1   
    30    12    25 1   
    31    13    25 1   
    32    13    26 1   
    33    13    42 1   
    34    13    43 1   
    35    14    15 1   
    36    14    26 2   
    37    14    27 1   
    38    15    28 1   
    39    15    44 1   
    40    15    45 1   
    41    16    58 2   
    42    17    58 1   
    43    18    46 1   
    44    20    47 1   
    45    21    22 1   
    46    21    58 1   
    47    22    48 1   
    48    22    49 1   
    49    23    24 ar  
    50    23    50 1   
    51    24    51 1   
    52    26    52 1   
    53    27    53 1   
    54    27    54 1   
    55    27    55 1   
    56    28    29 1   
    57    28    56 1   
    58    28    57 1   
    59    29    30 1   
    60    29    31 1   
@<TRIPOS>SUBSTRUCTURE
     1 89L         1 TEMP              0 ****  ****    0 ROOT
