@<TRIPOS>MOLECULE
89M
   90    93     1     0     0
SMALL
bcc


@<TRIPOS>ATOM
      1 CAA         13.3200     3.8040    -1.7730 c3         1 89M      -0.088100
      2 CAO         12.5170     2.9100    -0.8380 c3         1 89M      -0.075400
      3 CAQ         11.0110     3.0840    -0.9940 c3         1 89M      -0.075400
      4 CAR         10.2010     2.1960    -0.0570 c3         1 89M      -0.074400
      5 CAS          8.6960     2.3570    -0.2280 c3         1 89M      -0.074400
      6 CAT          7.8850     1.4710     0.7110 c3         1 89M      -0.072400
      7 CAU          6.3820     1.6080     0.5060 c3         1 89M      -0.100400
      8 CAV          5.5870     0.7210     1.4570 c3         1 89M       0.103000
      9 NBD          4.1550     0.8030     1.2550 ns         1 89M      -0.566900
     10 C            3.5160     0.1020     0.3090 c          1 89M       0.667100
     11 O            4.0840    -0.6910    -0.4260 o          1 89M      -0.599100
     12 CA           2.0170     0.3890     0.1250 c3         1 89M       0.045700
     13 N            1.3530    -0.8130    -0.3050 ns         1 89M      -0.554900
     14 CBH          1.3970    -1.9480     0.4100 c          1 89M       0.672100
     15 OAD          1.9510    -2.0050     1.5010 o          1 89M      -0.610100
     16 CBO          0.7570    -3.1580    -0.2380 c6         1 89M      -0.135700
     17 CAY          1.8560    -4.0120    -0.8850 c6         1 89M      -0.066400
     18 CAW          1.2830    -5.2820    -1.4990 c6         1 89M      -0.069400
     19 CBN          0.4960    -6.1050    -0.4820 c6         1 89M      -0.061700
     20 CAP         -0.0500    -7.3760    -1.1220 c3         1 89M       0.151800
     21 NAB         -0.7150    -8.2330    -0.1520 n8         1 89M      -0.886800
     22 CAX         -0.6020    -5.2500     0.1460 c6         1 89M      -0.069400
     23 CAZ         -0.0420    -3.9770     0.7710 c6         1 89M      -0.066400
     24 CB           1.3040     1.0630     1.3100 c3         1 89M      -0.039100
     25 CG          -0.1550     1.2780     1.0260 ca         1 89M      -0.119300
     26 CD2         -0.5880     2.3870     0.2980 ca         1 89M      -0.086500
     27 CE2         -1.9240     2.5760    -0.0010 ca         1 89M      -0.188000
     28 CD1         -1.1130     0.3650     1.4410 ca         1 89M      -0.086500
     29 CE1         -2.4630     0.5350     1.1520 ca         1 89M      -0.188000
     30 CZ          -2.8740     1.6480     0.4260 ca         1 89M       0.144100
     31 OH          -4.1570     1.9100     0.0910 os         1 89M      -0.324900
     32 CBA         -5.1710     1.0640     0.5860 c3         1 89M       0.084100
     33 CBK         -6.5060     1.6370     0.2010 ca         1 89M       0.427600
     34 NBC         -7.4450     0.7720    -0.0720 nb         1 89M      -0.667000
     35 CBM         -8.6890     1.2220    -0.3650 ca         1 89M       0.403600
     36 CAM         -9.7030     0.2810    -0.6520 ca         1 89M      -0.164300
     37 CAF        -10.9700     0.7030    -0.9540 ca         1 89M      -0.121000
     38 CAE        -11.2820     2.0790    -0.9860 ca         1 89M      -0.123000
     39 CAL        -10.3170     3.0110    -0.7150 ca         1 89M      -0.110000
     40 CBL         -9.0030     2.6020    -0.3980 ca         1 89M      -0.144300
     41 CAN         -7.9630     3.5100    -0.1030 ca         1 89M      -0.084000
     42 CAK         -6.7190     3.0370     0.1970 ca         1 89M      -0.223300
     43 H1          13.1090     4.8590    -1.5900 hc         1 89M       0.031367
     44 H2          14.3930     3.6560    -1.6460 hc         1 89M       0.031367
     45 H3          13.0810     3.5980    -2.8180 hc         1 89M       0.031367
     46 H4          12.7810     1.8630    -1.0180 hc         1 89M       0.036200
     47 H5          12.8000     3.1190     0.1990 hc         1 89M       0.036200
     48 H6          10.7470     4.1330    -0.8170 hc         1 89M       0.037200
     49 H7          10.7280     2.8710    -2.0310 hc         1 89M       0.037200
     50 H8          10.4750     1.1480    -0.2260 hc         1 89M       0.037700
     51 H9          10.4760     2.4180     0.9800 hc         1 89M       0.037700
     52 H10          8.4200     3.4040    -0.0640 hc         1 89M       0.038200
     53 H11          8.4220     2.1290    -1.2640 hc         1 89M       0.038200
     54 H12          8.1780     0.4260     0.5630 hc         1 89M       0.039200
     55 H13          8.1390     1.7140     1.7490 hc         1 89M       0.039200
     56 H14          6.0800     2.6500     0.6500 hc         1 89M       0.045200
     57 H15          6.1290     1.3470    -0.5250 hc         1 89M       0.045200
     58 H16          5.9000    -0.3190     1.3480 h1         1 89M       0.055200
     59 H17          5.7870     1.0050     2.4900 h1         1 89M       0.055200
     60 H18          3.6480     1.4660     1.8160 hn         1 89M       0.313500
     61 H19          1.9650     1.0810    -0.7220 h1         1 89M       0.064700
     62 H20          0.9040    -0.8170    -1.2050 hn         1 89M       0.324500
     63 H21          0.0810    -2.8230    -1.0330 hc         1 89M       0.048700
     64 H22          2.3800    -3.4270    -1.6450 hc         1 89M       0.053450
     65 H23          2.5990    -4.2740    -0.1250 hc         1 89M       0.053450
     66 H24          0.6250    -5.0180    -2.3360 hc         1 89M       0.042950
     67 H25          2.0950    -5.8810    -1.9200 hc         1 89M       0.042950
     68 H26          1.1920    -6.4020     0.3160 hc         1 89M       0.048700
     69 H27         -0.7820    -7.0990    -1.8890 h1         1 89M       0.026200
     70 H28          0.7720    -7.8800    -1.6520 h1         1 89M       0.026200
     71 H29         -1.1310    -9.0220    -0.6290 hn         1 89M       0.336300
     72 H30         -0.0240    -8.6280     0.4740 hn         1 89M       0.336300
     73 H32         -1.3370    -4.9940    -0.6260 hc         1 89M       0.042950
     74 H33         -1.1380    -5.8280     0.9000 hc         1 89M       0.042950
     75 H34          0.6040    -4.2420     1.6130 hc         1 89M       0.053450
     76 H35         -0.8570    -3.3730     1.1800 hc         1 89M       0.053450
     77 H36          1.4260     0.4620     2.2120 hc         1 89M       0.060700
     78 H37          1.7680     2.0350     1.4980 hc         1 89M       0.060700
     79 H38          0.1330     3.1240    -0.0380 ha         1 89M       0.134000
     80 H39         -2.2420     3.4480    -0.5600 ha         1 89M       0.142000
     81 H40         -0.8100    -0.5060     2.0110 ha         1 89M       0.134000
     82 H41         -3.1680    -0.2080     1.4980 ha         1 89M       0.142000
     83 H42         -5.0840     0.0490     0.1860 h1         1 89M       0.057700
     84 H43         -5.1140     0.9940     1.6800 h1         1 89M       0.057700
     85 H44         -9.4560    -0.7730    -0.6260 ha         1 89M       0.149000
     86 H45        -11.7430    -0.0230    -1.1700 ha         1 89M       0.135000
     87 H46        -12.2890     2.3930    -1.2280 ha         1 89M       0.134000
     88 H47        -10.5490     4.0690    -0.7390 ha         1 89M       0.134000
     89 H48         -8.1610     4.5750    -0.1130 ha         1 89M       0.138000
     90 H49         -5.9120     3.7170     0.4310 ha         1 89M       0.154000
@<TRIPOS>BOND
     1     1     2 1   
     2     1    43 1   
     3     1    44 1   
     4     1    45 1   
     5     2     3 1   
     6     2    46 1   
     7     2    47 1   
     8     3     4 1   
     9     3    48 1   
    10     3    49 1   
    11     4     5 1   
    12     4    50 1   
    13     4    51 1   
    14     5     6 1   
    15     5    52 1   
    16     5    53 1   
    17     6     7 1   
    18     6    54 1   
    19     6    55 1   
    20     7     8 1   
    21     7    56 1   
    22     7    57 1   
    23     8     9 1   
    24     8    58 1   
    25     8    59 1   
    26     9    10 1   
    27     9    60 1   
    28    10    11 2   
    29    10    12 1   
    30    12    13 1   
    31    12    24 1   
    32    12    61 1   
    33    13    14 1   
    34    13    62 1   
    35    14    15 2   
    36    14    16 1   
    37    16    17 1   
    38    16    23 1   
    39    16    63 1   
    40    17    18 1   
    41    17    64 1   
    42    17    65 1   
    43    18    19 1   
    44    18    66 1   
    45    18    67 1   
    46    19    20 1   
    47    19    22 1   
    48    19    68 1   
    49    20    21 1   
    50    20    69 1   
    51    20    70 1   
    52    21    71 1   
    53    21    72 1   
    54    22    23 1   
    55    22    73 1   
    56    22    74 1   
    57    23    75 1   
    58    23    76 1   
    59    24    25 1   
    60    24    77 1   
    61    24    78 1   
    62    25    26 ar  
    63    25    28 ar  
    64    26    27 ar  
    65    26    79 1   
    66    27    30 ar  
    67    27    80 1   
    68    28    29 ar  
    69    28    81 1   
    70    29    30 ar  
    71    29    82 1   
    72    30    31 1   
    73    31    32 1   
    74    32    33 1   
    75    32    83 1   
    76    32    84 1   
    77    33    34 ar  
    78    33    42 ar  
    79    34    35 ar  
    80    35    36 ar  
    81    35    40 ar  
    82    36    37 ar  
    83    36    85 1   
    84    37    38 ar  
    85    37    86 1   
    86    38    39 ar  
    87    38    87 1   
    88    39    40 ar  
    89    39    88 1   
    90    40    41 ar  
    91    41    42 ar  
    92    41    89 1   
    93    42    90 1   
@<TRIPOS>SUBSTRUCTURE
     1 89M         1 TEMP              0 ****  ****    0 ROOT
