@<TRIPOS>MOLECULE
89M
   90    93     1     0     0
SMALL
No Charge or Current Charge


@<TRIPOS>ATOM
      1 CAA         14.0380     3.2040    -2.0680 c3         1 89M      -0.088100
      2 CAO         13.1460     2.8190    -0.8720 c3         1 89M      -0.075400
      3 CAQ         11.6440     2.7740    -1.2290 c3         1 89M      -0.075400
      4 CAR         10.7500     2.3880    -0.0300 c3         1 89M      -0.074400
      5 CAS          9.2470     2.3430    -0.3860 c3         1 89M      -0.074400
      6 CAT          8.3530     1.9570     0.8120 c3         1 89M      -0.072400
      7 CAU          6.8520     1.9120     0.4550 c3         1 89M      -0.100400
      8 CAV          5.9620     1.5270     1.6550 c3         1 89M       0.103000
      9 NBD          4.5400     1.5110     1.3030 ns         1 89M      -0.499900
     10 C            3.9030     0.4810     0.6360 c          1 89M       0.600100
     11 O            4.5100    -0.5300     0.3010 o          1 89M      -0.599100
     12 CA           2.3830     0.7100     0.3400 c3         1 89M       0.045700
     13 N            1.7420    -0.4990    -0.2350 ns         1 89M      -0.487900
     14 CBH          1.4310    -1.6500     0.4600 c          1 89M       0.605100
     15 OAD          1.7560    -1.8260     1.6270 o          1 89M      -0.610100
     16 CBO          0.6360    -2.7100    -0.3310 c6         1 89M      -0.135700
     17 CAY          1.4100    -4.0390    -0.5270 c6         1 89M      -0.066400
     18 CAW          0.5930    -5.0390    -1.3840 c6         1 89M      -0.069400
     19 CBN         -0.8280    -5.2800    -0.7960 c6         1 89M      -0.061700
     20 CAP         -1.6090    -6.3190    -1.6570 c3         1 89M       0.151800
     21 NAB         -2.9110    -6.7200    -1.0890 n8         1 89M      -0.997200
     22 CAX         -1.5910    -3.9280    -0.6580 c6         1 89M      -0.069400
     23 CAZ         -0.8060    -2.9090     0.2060 c6         1 89M      -0.066400
     24 CB           1.5870     1.3020     1.5410 c3         1 89M      -0.039100
     25 CG           0.0780     1.3280     1.3000 ca         1 89M      -0.119300
     26 CD2         -0.4680     2.1650     0.3080 ca         1 89M      -0.068500
     27 CE2         -1.8520     2.1680     0.0690 ca         1 89M      -0.170000
     28 CD1         -0.7780     0.5020     2.0540 ca         1 89M      -0.068500
     29 CE1         -2.1630     0.5030     1.8140 ca         1 89M      -0.170000
     30 CZ          -2.7050     1.3390     0.8140 ca         1 89M       0.144100
     31 OH          -4.0550     1.3800     0.5290 os         1 89M      -0.348100
     32 CBA         -5.0140     0.5560     1.2270 c3         1 89M       0.107300
     33 CBK         -6.4220     0.8340     0.6980 ca         1 89M       0.362300
     34 NBC         -7.1090    -0.2170     0.1810 nb         1 89M      -0.667000
     35 CBM         -8.3610    -0.0120    -0.2920 ca         1 89M       0.273000
     36 CAM         -9.0880    -1.0880    -0.8340 ca         1 89M      -0.081000
     37 CAF        -10.3910    -0.9050    -1.3330 ca         1 89M      -0.103000
     38 CAE        -10.9850     0.3660    -1.2950 ca         1 89M      -0.105000
     39 CAL        -10.2770     1.4540    -0.7580 ca         1 89M      -0.092000
     40 CBL         -8.9730     1.2690    -0.2590 ca         1 89M      -0.079000
     41 CAN         -8.2630     2.3560     0.2800 ca         1 89M      -0.066000
     42 CAK         -6.9670     2.1290     0.7660 ca         1 89M      -0.140000
     43 H1          13.7720     4.1980    -2.4470 hc         1 89M       0.031367
     44 H2          15.0930     3.2230    -1.7670 hc         1 89M       0.031367
     45 H3          13.9270     2.4800    -2.8840 hc         1 89M       0.031367
     46 H4          13.4600     1.8380    -0.4950 hc         1 89M       0.036200
     47 H5          13.3060     3.5410    -0.0610 hc         1 89M       0.036200
     48 H6          11.3340     3.7560    -1.6080 hc         1 89M       0.037200
     49 H7          11.4880     2.0530    -2.0410 hc         1 89M       0.037200
     50 H8          11.0590     1.4060     0.3490 hc         1 89M       0.037700
     51 H9          10.9050     3.1090     0.7830 hc         1 89M       0.037700
     52 H10          8.9380     3.3250    -0.7650 hc         1 89M       0.038200
     53 H11          9.0920     1.6220    -1.1990 hc         1 89M       0.038200
     54 H12          8.6630     0.9750     1.1910 hc         1 89M       0.039200
     55 H13          8.5090     2.6780     1.6250 hc         1 89M       0.039200
     56 H14          6.5400     2.8940     0.0790 hc         1 89M       0.045200
     57 H15          6.6960     1.1920    -0.3570 hc         1 89M       0.045200
     58 H16          6.2520     0.5360     2.0290 h1         1 89M       0.055200
     59 H17          6.1110     2.2510     2.4670 h1         1 89M       0.055200
     60 H18          3.9800     2.3210     1.5390 hn         1 89M       0.313500
     61 H19          2.3620     1.4710    -0.4500 h1         1 89M       0.064700
     62 H20          1.4370    -0.4650    -1.2000 hn         1 89M       0.324500
     63 H21          0.5140    -2.2880    -1.3380 hc         1 89M       0.048700
     64 H22          2.3800    -3.8440    -1.0060 hc         1 89M       0.053450
     65 H23          1.6290    -4.4880     0.4520 hc         1 89M       0.053450
     66 H24          0.5100    -4.6590    -2.4120 hc         1 89M       0.042950
     67 H25          1.1380    -5.9910    -1.4490 hc         1 89M       0.042950
     68 H26         -0.7150    -5.7240     0.2040 hc         1 89M       0.048700
     69 H27         -1.7780    -5.9020    -2.6590 h1         1 89M       0.026200
     70 H28         -0.9930    -7.2230    -1.7640 h1         1 89M       0.026200
     71 H29         -3.3170    -7.4610    -1.6730 hn         1 89M       0.391500
     72 H30         -2.7520    -7.1850    -0.1870 hn         1 89M       0.391500
     73 H32         -1.7720    -3.5010    -1.6550 hc         1 89M       0.042950
     74 H33         -2.5800    -4.0910    -0.2080 hc         1 89M       0.042950
     75 H34         -0.7680    -3.2610     1.2460 hc         1 89M       0.053450
     76 H35         -1.3380    -1.9480     0.2200 hc         1 89M       0.053450
     77 H36          1.8160     0.7240     2.4440 hc         1 89M       0.060700
     78 H37          1.9360     2.3220     1.7430 hc         1 89M       0.060700
     79 H38          0.1810     2.8090    -0.2820 ha         1 89M       0.116000
     80 H39         -2.2670     2.8130    -0.7010 ha         1 89M       0.124000
     81 H40         -0.3700    -0.1530     2.8210 ha         1 89M       0.116000
     82 H41         -2.7950    -0.1500     2.4080 ha         1 89M       0.124000
     83 H42         -4.7760    -0.5070     1.0910 h1         1 89M       0.057700
     84 H43         -4.9980     0.7740     2.3020 h1         1 89M       0.057700
     85 H44         -8.6350    -2.0750    -0.8670 ha         1 89M       0.131000
     86 H45        -10.9370    -1.7490    -1.7480 ha         1 89M       0.117000
     87 H46        -11.9920     0.5090    -1.6800 ha         1 89M       0.116000
     88 H47        -10.7420     2.4370    -0.7300 ha         1 89M       0.116000
     89 H48         -8.7030     3.3500     0.3210 ha         1 89M       0.120000
     90 H49         -6.3860     2.9440     1.1890 ha         1 89M       0.136000
@<TRIPOS>BOND
     1     1     2 1   
     2     1    43 1   
     3     1    44 1   
     4     1    45 1   
     5     2     3 1   
     6     2    46 1   
     7     2    47 1   
     8     3     4 1   
     9     3    48 1   
    10     3    49 1   
    11     4     5 1   
    12     4    50 1   
    13     4    51 1   
    14     5     6 1   
    15     5    52 1   
    16     5    53 1   
    17     6     7 1   
    18     6    54 1   
    19     6    55 1   
    20     7     8 1   
    21     7    56 1   
    22     7    57 1   
    23     8     9 1   
    24     8    58 1   
    25     8    59 1   
    26     9    10 1   
    27     9    60 1   
    28    10    11 2   
    29    10    12 1   
    30    12    13 1   
    31    12    24 1   
    32    12    61 1   
    33    13    14 1   
    34    13    62 1   
    35    14    15 2   
    36    14    16 1   
    37    16    17 1   
    38    16    23 1   
    39    16    63 1   
    40    17    18 1   
    41    17    64 1   
    42    17    65 1   
    43    18    19 1   
    44    18    66 1   
    45    18    67 1   
    46    19    20 1   
    47    19    22 1   
    48    19    68 1   
    49    20    21 1   
    50    20    69 1   
    51    20    70 1   
    52    21    71 1   
    53    21    72 1   
    54    22    23 1   
    55    22    73 1   
    56    22    74 1   
    57    23    75 1   
    58    23    76 1   
    59    24    25 1   
    60    24    77 1   
    61    24    78 1   
    62    25    26 ar  
    63    25    28 ar  
    64    26    27 ar  
    65    26    79 1   
    66    27    30 ar  
    67    27    80 1   
    68    28    29 ar  
    69    28    81 1   
    70    29    30 ar  
    71    29    82 1   
    72    30    31 1   
    73    31    32 1   
    74    32    33 1   
    75    32    83 1   
    76    32    84 1   
    77    33    34 ar  
    78    33    42 ar  
    79    34    35 ar  
    80    35    36 ar  
    81    35    40 ar  
    82    36    37 ar  
    83    36    85 1   
    84    37    38 ar  
    85    37    86 1   
    86    38    39 ar  
    87    38    87 1   
    88    39    40 ar  
    89    39    88 1   
    90    40    41 ar  
    91    41    42 ar  
    92    41    89 1   
    93    42    90 1   
@<TRIPOS>SUBSTRUCTURE
     1 89M         1 TEMP              0 ****  ****    0 ROOT
