@<TRIPOS>MOLECULE
89N
   14    13     1     0     0
SMALL
No Charge or Current Charge


@<TRIPOS>ATOM
      1 C2          16.5670   -19.4770    37.4310 c3         1 89N       0.196800
      2 C3          14.8380   -22.6810    38.9820 c3         1 89N       0.196800
      3 C4          15.7190   -20.4090    38.2630 c2         1 89N      -0.209200
      4 C5          15.6760   -21.7480    38.1400 c2         1 89N      -0.209200
      5 O1          13.5480   -22.8200    38.3870 oh         1 89N      -0.655000
      6 O2          15.8490   -19.1110    36.2530 oh         1 89N      -0.655000
      7 H1          16.8160   -18.5840    38.0200 h1         1 89N       0.021450
      8 H2          17.5100   -19.9740    37.1650 h1         1 89N       0.021450
      9 H3          15.3340   -23.6580    39.0500 h1         1 89N       0.021450
     10 H4          14.7480   -22.2800    40.0010 h1         1 89N       0.021450
     11 H5          15.1110   -19.9020    39.0150 ha         1 89N       0.182500
     12 H6          16.2820   -22.2550    37.3880 ha         1 89N       0.182500
     13 H7          13.0340   -23.4260    38.9670 ho         1 89N       0.441500
     14 H8          16.4370   -18.5140    35.7400 ho         1 89N       0.441500
@<TRIPOS>BOND
     1     1     3 1   
     2     1     6 1   
     3     1     7 1   
     4     1     8 1   
     5     2     4 1   
     6     2     5 1   
     7     2     9 1   
     8     2    10 1   
     9     3     4 2   
    10     3    11 1   
    11     4    12 1   
    12     5    13 1   
    13     6    14 1   
@<TRIPOS>SUBSTRUCTURE
     1 89N         1 TEMP              0 ****  ****    0 ROOT
