@<TRIPOS>MOLECULE
89N
   14    13     1     0     0
SMALL
bcc


@<TRIPOS>ATOM
      1 C2          16.4770   -19.5380    37.3810 c3         1 89N       0.173600
      2 C3          14.8950   -22.7590    38.9090 c3         1 89N       0.173600
      3 C4          15.4970   -20.5100    37.9520 c2         1 89N      -0.159200
      4 C5          15.8130   -21.7520    38.3020 c2         1 89N      -0.159200
      5 O1          13.6020   -22.2370    39.0600 oh         1 89N      -0.592800
      6 O2          15.9960   -19.0930    36.1270 oh         1 89N      -0.592800
      7 H1          16.5890   -18.6950    38.0760 h1         1 89N       0.021450
      8 H2          17.4640   -20.0110    37.2960 h1         1 89N       0.021450
      9 H3          14.9030   -23.6550    38.2720 h1         1 89N       0.021450
     10 H4          15.3250   -23.0780    39.8700 h1         1 89N       0.021450
     11 H5          14.4870   -20.1390    38.0940 ha         1 89N       0.132500
     12 H6          16.8290   -22.1080    38.1510 ha         1 89N       0.132500
     13 H7          13.0510   -22.9120    39.4660 ho         1 89N       0.402500
     14 H8          16.5400   -18.3520    35.8460 ho         1 89N       0.402500
@<TRIPOS>BOND
     1     1     3 1   
     2     1     6 1   
     3     1     7 1   
     4     1     8 1   
     5     2     4 1   
     6     2     5 1   
     7     2     9 1   
     8     2    10 1   
     9     3     4 2   
    10     3    11 1   
    11     4    12 1   
    12     5    13 1   
    13     6    14 1   
@<TRIPOS>SUBSTRUCTURE
     1 89N         1 TEMP              0 ****  ****    0 ROOT
