@<TRIPOS>MOLECULE
89O
   49    53     1     0     0
SMALL
bcc


@<TRIPOS>ATOM
      1 C10         -1.9210    -0.7710     1.3290 ca         1 89O      -0.108000
      2 C15          0.7960    -0.8610    -0.7950 ca         1 89O      -0.194500
      3 C17          2.9230    -1.9870    -0.6090 ca         1 89O       0.088100
      4 C24          0.4430    -2.1970    -3.2380 c3         1 89O       0.127700
      5 C28          0.4460     3.6880    -1.2940 c5         1 89O       0.146400
      6 C01         -1.7470     2.2810    -1.0100 c6         1 89O       0.219400
      7 C02         -0.2430     2.3860    -0.9230 c5         1 89O      -0.101700
      8 C03          0.2070     2.1990     0.5110 c5         1 89O      -0.178700
      9 C04          0.0070     0.7650     0.9880 c6         1 89O       0.063900
     10 C05         -1.4200     0.3590     0.6590 ca         1 89O      -0.049300
     11 C06         -2.1980     1.0150    -0.2970 ca         1 89O      -0.130300
     12 C07         -3.4920     0.5480    -0.6020 ca         1 89O      -0.120000
     13 C08         -3.9550    -0.5510     0.0660 ca         1 89O       0.054100
     14 C09         -3.1830    -1.1980     1.0190 ca         1 89O       0.064100
     15 O11         -3.8820    -2.2340     1.5370 os         1 89O      -0.314900
     16 C12         -5.0570    -2.3560     0.7440 c5         1 89O       0.327200
     17 O13         -5.1550    -1.1700    -0.0350 os         1 89O      -0.319900
     18 C14          1.0150    -0.2160     0.4180 ca         1 89O      -0.061300
     19 C16          1.7430    -1.7400    -1.3120 ca         1 89O       0.104100
     20 C18          3.1320    -1.3460     0.6120 ca         1 89O       0.104100
     21 C19          2.1830    -0.4710     1.1250 ca         1 89O      -0.194500
     22 O20          4.3020    -1.6580     1.2140 os         1 89O      -0.318900
     23 O23          1.6140    -2.4070    -2.4770 os         1 89O      -0.318900
     24 C25          1.5780     2.8170     0.5080 c          1 89O       0.748600
     25 O26          2.4800     2.6830     1.2880 o          1 89O      -0.568500
     26 O27          1.6710     3.6540    -0.5310 os         1 89O      -0.406900
     27 O29         -2.3100     3.4300    -0.4100 oh         1 89O      -0.597800
     28 H101        -1.3150    -1.2840     2.0650 ha         1 89O       0.161000
     29 H151        -0.1310    -0.6910    -1.3260 ha         1 89O       0.144000
     30 H213         5.6250    -1.3560     2.7010 h1         1 89O       0.042033
     31 H211         4.6700     0.0830     2.2960 h1         1 89O       0.042033
     32 H212         3.9350    -1.2460     3.2230 h1         1 89O       0.042033
     33 H242         0.5380    -2.8150    -4.1280 h1         1 89O       0.042033
     34 H243        -0.4580    -2.4990    -2.6970 h1         1 89O       0.042033
     35 H241         0.3370    -1.1540    -3.5470 h1         1 89O       0.042033
     36 H281         0.7090     3.7640    -2.3470 h1         1 89O       0.072200
     37 H282        -0.1240     4.5710    -1.0010 h1         1 89O       0.072200
     38 H011        -2.0520     2.2140    -2.0630 h1         1 89O       0.044700
     39 H021         0.1830     1.5870    -1.5390 hc         1 89O       0.081700
     40 H031        -0.4000     2.8480     1.1590 hc         1 89O       0.101700
     41 H041         0.1170     0.7500     2.0760 hc         1 89O       0.076700
     42 H071        -4.0970     1.0410    -1.3540 ha         1 89O       0.148000
     43 H121        -4.9720    -3.2270     0.0860 h2         1 89O       0.068200
     44 H122        -5.9300    -2.4460     1.3890 h2         1 89O       0.068200
     45 H191         2.3480     0.0200     2.0740 ha         1 89O       0.144000
     46 H221         4.5740    -2.9320    -0.5400 ho         1 89O       0.437000
     47 H291        -3.2690     3.3520    -0.4310 ho         1 89O       0.415000
     48 O22          3.8190    -2.8500    -1.1340 oh         1 89O      -0.476100
     49 C21          4.6370    -1.0030     2.4210 c3         1 89O       0.127700
@<TRIPOS>BOND
     1     1    10 ar  
     2     1    14 ar  
     3     1    28 1   
     4     2    18 ar  
     5     2    19 ar  
     6     2    29 1   
     7     3    19 ar  
     8     3    20 ar  
     9     3    48 1   
    10     4    23 1   
    11     4    33 1   
    12     4    34 1   
    13     4    35 1   
    14     5     7 1   
    15     5    26 1   
    16     5    36 1   
    17     5    37 1   
    18     6     7 1   
    19     6    11 1   
    20     6    27 1   
    21     6    38 1   
    22     7     8 1   
    23     7    39 1   
    24     8     9 1   
    25     8    24 1   
    26     8    40 1   
    27     9    10 1   
    28     9    18 1   
    29     9    41 1   
    30    10    11 ar  
    31    11    12 ar  
    32    12    13 ar  
    33    12    42 1   
    34    13    14 ar  
    35    13    17 1   
    36    14    15 1   
    37    15    16 1   
    38    16    17 1   
    39    16    43 1   
    40    16    44 1   
    41    18    21 ar  
    42    19    23 1   
    43    20    21 ar  
    44    20    22 1   
    45    21    45 1   
    46    22    49 1   
    47    24    25 2   
    48    24    26 1   
    49    27    47 1   
    50    30    49 1   
    51    31    49 1   
    52    32    49 1   
    53    46    48 1   
@<TRIPOS>SUBSTRUCTURE
     1 89O         1 TEMP              0 ****  ****    0 ROOT
