@<TRIPOS>MOLECULE
89O
   49    53     1     0     0
SMALL
No Charge or Current Charge


@<TRIPOS>ATOM
      1 C10         -1.8280    -0.7710     1.3270 ca         1 89O      -0.090000
      2 C15          0.9130    -0.7590    -0.8910 ca         1 89O      -0.176500
      3 C17          2.9540    -2.0590    -0.5730 ca         1 89O       0.088100
      4 C24          0.5920    -2.0140    -3.4900 c3         1 89O       0.150900
      5 C28          0.2590     3.9140    -1.3190 c5         1 89O       0.169600
      6 C01         -1.8320     2.2750    -1.1050 c6         1 89O       0.242600
      7 C02         -0.3020     2.4930    -1.0540 c5         1 89O      -0.101700
      8 C03          0.2650     2.3020     0.3590 c5         1 89O      -0.178700
      9 C04          0.0630     0.8650     0.9130 c6         1 89O       0.063900
     10 C05         -1.3790     0.3790     0.6350 ca         1 89O      -0.049300
     11 C06         -2.2410     1.0090    -0.3260 ca         1 89O      -0.130300
     12 C07         -3.5280     0.4690    -0.5680 ca         1 89O      -0.102000
     13 C08         -3.9260    -0.6650     0.1450 ca         1 89O       0.054100
     14 C09         -3.1090    -1.2610     1.0600 ca         1 89O       0.064100
     15 O11         -3.6760    -2.3550     1.6280 os         1 89O      -0.338100
     16 C12         -5.0190    -2.3730     1.0270 c5         1 89O       0.373600
     17 O13         -5.1170    -1.3040     0.0190 os         1 89O      -0.343100
     18 C14          1.0850    -0.1570     0.3730 ca         1 89O      -0.061300
     19 C16          1.8430    -1.7070    -1.3730 ca         1 89O       0.104100
     20 C18          3.1250    -1.4730     0.6980 ca         1 89O       0.104100
     21 C19          2.1860    -0.5300     1.1680 ca         1 89O      -0.176500
     22 O20          4.2270    -1.8550     1.4460 os         1 89O      -0.342100
     23 O23          1.6950    -2.3090    -2.6130 os         1 89O      -0.342100
     24 C25          1.6620     2.9410     0.2570 c          1 89O       0.673100
     25 O26          2.7270     2.4150     0.5410 o          1 89O      -0.493000
     26 O27          1.5990     3.8500    -0.7710 os         1 89O      -0.430100
     27 O29         -2.5200     3.3920    -0.5390 oh         1 89O      -0.660000
     28 H101        -1.1890    -1.2760     2.0480 ha         1 89O       0.143000
     29 H151         0.0460    -0.4910    -1.4850 ha         1 89O       0.126000
     30 H213         5.4230    -1.7400     3.1560 h1         1 89O       0.042033
     31 H211         4.6390    -0.2170     2.6890 h1         1 89O       0.042033
     32 H212         3.6850    -1.5220     3.4450 h1         1 89O       0.042033
     33 H242         0.6740    -2.6000    -4.4140 h1         1 89O       0.042033
     34 H243        -0.3640    -2.2640    -3.0130 h1         1 89O       0.042033
     35 H241         0.5830    -0.9500    -3.7620 h1         1 89O       0.042033
     36 H281         0.2930     4.1760    -2.3850 h1         1 89O       0.072200
     37 H282        -0.3030     4.6910    -0.7820 h1         1 89O       0.072200
     38 H011        -2.1310     2.1540    -2.1570 h1         1 89O       0.044700
     39 H021         0.1330     1.7830    -1.7650 hc         1 89O       0.081700
     40 H031        -0.3140     2.9690     1.0090 hc         1 89O       0.101700
     41 H041         0.1850     0.9220     2.0040 hc         1 89O       0.076700
     42 H071        -4.2010     0.9180    -1.2950 ha         1 89O       0.130000
     43 H121        -5.1980    -3.3450     0.5530 h2         1 89O       0.068200
     44 H122        -5.7650    -2.1950     1.8120 h2         1 89O       0.068200
     45 H191         2.3050    -0.0700     2.1450 ha         1 89O       0.126000
     46 H221         4.5500    -3.0650    -0.3000 ho         1 89O       0.476000
     47 H291        -3.4280     3.0770    -0.3430 ho         1 89O       0.454000
     48 O22          3.8770    -2.9760    -1.0110 oh         1 89O      -0.515100
     49 C21          4.5030    -1.3040     2.7470 c3         1 89O       0.150900
@<TRIPOS>BOND
     1     1    10 ar  
     2     1    14 ar  
     3     1    28 1   
     4     2    18 ar  
     5     2    19 ar  
     6     2    29 1   
     7     3    19 ar  
     8     3    20 ar  
     9     3    48 1   
    10     4    23 1   
    11     4    33 1   
    12     4    34 1   
    13     4    35 1   
    14     5     7 1   
    15     5    26 1   
    16     5    36 1   
    17     5    37 1   
    18     6     7 1   
    19     6    11 1   
    20     6    27 1   
    21     6    38 1   
    22     7     8 1   
    23     7    39 1   
    24     8     9 1   
    25     8    24 1   
    26     8    40 1   
    27     9    10 1   
    28     9    18 1   
    29     9    41 1   
    30    10    11 ar  
    31    11    12 ar  
    32    12    13 ar  
    33    12    42 1   
    34    13    14 ar  
    35    13    17 1   
    36    14    15 1   
    37    15    16 1   
    38    16    17 1   
    39    16    43 1   
    40    16    44 1   
    41    18    21 ar  
    42    19    23 1   
    43    20    21 ar  
    44    20    22 1   
    45    21    45 1   
    46    22    49 1   
    47    24    25 2   
    48    24    26 1   
    49    27    47 1   
    50    30    49 1   
    51    31    49 1   
    52    32    49 1   
    53    46    48 1   
@<TRIPOS>SUBSTRUCTURE
     1 89O         1 TEMP              0 ****  ****    0 ROOT
