@<TRIPOS>MOLECULE
89P
   58    62     1     0     0
SMALL
No Charge or Current Charge


@<TRIPOS>ATOM
      1 C1          -5.7430     4.0000    -2.4190 c3         1 89P      -0.087100
      2 C2          -4.8660     3.7310    -1.1760 c3         1 89P      -0.102000
      3 C3          -5.1060     4.7840    -0.0700 c3         1 89P      -0.087100
      4 C4          -5.0540     2.3250    -0.6550 cc         1 89P       0.216300
      5 O5          -6.2940     1.9400    -0.2010 os         1 89P      -0.066700
      6 N6          -6.2180     0.5730     0.2410 nc         1 89P      -0.341300
      7 C7          -4.9600     0.2360     0.0260 cd         1 89P       0.342500
      8 C8          -4.1920     1.2770    -0.5280 cd         1 89P      -0.210300
      9 C9          -2.7330     1.2000    -0.8810 c3         1 89P       0.245900
     10 O10         -2.0120     0.8570     0.3120 os         1 89P      -0.346100
     11 C11         -0.6590     0.5980     0.3080 ca         1 89P       0.122100
     12 C12         -0.0700     0.1860     1.5110 ca         1 89P      -0.174500
     13 C13          1.3050    -0.1000     1.5700 ca         1 89P      -0.072500
     14 C14          2.1260     0.0220     0.4210 cp         1 89P      -0.036000
     15 C15          1.5140     0.4410    -0.7870 ca         1 89P      -0.072500
     16 C16          0.1380     0.7260    -0.8480 ca         1 89P      -0.174500
     17 C17          3.5920    -0.2830     0.4820 cp         1 89P      -0.070000
     18 C18          4.0920    -1.3130     1.3140 ca         1 89P      -0.122000
     19 C19          5.4680    -1.5990     1.3700 ca         1 89P      -0.077000
     20 C20          6.3930    -0.8690     0.6020 ca         1 89P       0.270000
     21 N21          7.7120    -1.1650     0.6760 nb         1 89P      -0.641000
     22 C22          8.6120    -0.4500    -0.0740 ca         1 89P       0.309500
     23 C23          8.1750     0.5940    -0.9230 ca         1 89P      -0.114000
     24 C24          6.8090     0.9070    -1.0060 ca         1 89P      -0.118000
     25 C25          5.9040     0.1640    -0.2330 ca         1 89P      -0.102000
     26 C26          4.5260     0.4500    -0.2900 ca         1 89P      -0.075000
     27 C27         10.1290    -0.7860     0.0070 c          1 89P       0.610500
     28 O28         10.9180    -0.1350    -0.6710 o          1 89P      -0.695000
     29 O29         10.5100    -1.6920     0.7440 o          1 89P      -0.695000
     30 C30         -4.4690    -1.1050     0.3510 ca         1 89P      -0.122500
     31 C31         -4.0890    -1.4250     1.6710 ca         1 89P       0.149500
     32 Cl32        -4.2350    -0.2400     2.9680 cl         1 89P      -0.177500
     33 C33         -3.5720    -2.6970     1.9720 ca         1 89P      -0.106500
     34 C34         -3.4220    -3.6560     0.9570 ca         1 89P      -0.084000
     35 C35         -3.7840    -3.3370    -0.3620 ca         1 89P      -0.106500
     36 C36         -4.2990    -2.0660    -0.6650 ca         1 89P       0.149500
     37 Cl37        -4.7320    -1.6980    -2.3340 cl         1 89P      -0.177500
     38 H1          -5.5470     5.0000    -2.8240 hc         1 89P       0.044367
     39 H1A         -5.5310     3.2670    -3.2060 hc         1 89P       0.044367
     40 H1B         -6.8100     3.9350    -2.1690 hc         1 89P       0.044367
     41 H2          -3.8240     3.8440    -1.4960 hc         1 89P       0.069700
     42 H3          -6.1440     4.7520     0.2840 hc         1 89P       0.044367
     43 H3A         -4.4460     4.6000     0.7860 hc         1 89P       0.044367
     44 H3B         -4.9020     5.7940    -0.4440 hc         1 89P       0.044367
     45 H9          -2.5950     0.4310    -1.6520 h1         1 89P       0.044700
     46 H9A         -2.3820     2.1590    -1.2820 h1         1 89P       0.044700
     47 H12         -0.6820     0.0870     2.4040 ha         1 89P       0.114000
     48 H13          1.7380    -0.4060     2.5180 ha         1 89P       0.117500
     49 H15          2.1090     0.5330    -1.6920 ha         1 89P       0.117500
     50 H16         -0.2860     1.0420    -1.7970 ha         1 89P       0.114000
     51 H18          3.4090    -1.9100     1.9140 ha         1 89P       0.098000
     52 H19          5.8230    -2.3980     2.0150 ha         1 89P       0.127000
     53 H23          8.8920     1.1570    -1.5140 ha         1 89P       0.142000
     54 H24          6.4670     1.7090    -1.6570 ha         1 89P       0.094000
     55 H26          4.1790     1.2580    -0.9290 ha         1 89P       0.098000
     56 H33         -3.2830    -2.9350     2.9920 ha         1 89P       0.135000
     57 H34         -3.0200    -4.6400     1.1900 ha         1 89P       0.123000
     58 H35         -3.6620    -4.0740    -1.1530 ha         1 89P       0.135000
@<TRIPOS>BOND
     1     1     2 1   
     2     1    38 1   
     3     1    39 1   
     4     1    40 1   
     5     2     3 1   
     6     2     4 1   
     7     2    41 1   
     8     3    42 1   
     9     3    43 1   
    10     3    44 1   
    11     4     5 1   
    12     4     8 2   
    13     5     6 1   
    14     6     7 2   
    15     7     8 1   
    16     7    30 1   
    17     8     9 1   
    18     9    10 1   
    19     9    45 1   
    20     9    46 1   
    21    10    11 1   
    22    11    12 ar  
    23    11    16 ar  
    24    12    13 ar  
    25    12    47 1   
    26    13    14 ar  
    27    13    48 1   
    28    14    15 ar  
    29    14    17 1   
    30    15    16 ar  
    31    15    49 1   
    32    16    50 1   
    33    17    18 ar  
    34    17    26 ar  
    35    18    19 ar  
    36    18    51 1   
    37    19    20 ar  
    38    19    52 1   
    39    20    21 ar  
    40    20    25 ar  
    41    21    22 ar  
    42    22    23 ar  
    43    22    27 1   
    44    23    24 ar  
    45    23    53 1   
    46    24    25 ar  
    47    24    54 1   
    48    25    26 ar  
    49    26    55 1   
    50    27    28 1   
    51    27    29 1   
    52    30    31 ar  
    53    30    36 ar  
    54    31    32 1   
    55    31    33 ar  
    56    33    34 ar  
    57    33    56 1   
    58    34    35 ar  
    59    34    57 1   
    60    35    36 ar  
    61    35    58 1   
    62    36    37 1   
@<TRIPOS>SUBSTRUCTURE
     1 89P         1 TEMP              0 ****  ****    0 ROOT
