@<TRIPOS>MOLECULE
89P
   58    62     1     0     0
SMALL
bcc


@<TRIPOS>ATOM
      1 C1          -5.1770     4.2630    -1.9110 c3         1 89P      -0.087100
      2 C2          -4.2490     3.5400    -0.9360 c3         1 89P      -0.102000
      3 C3          -4.0620     4.3400     0.3570 c3         1 89P      -0.087100
      4 C4          -4.7150     2.1600    -0.6310 cc         1 89P       0.326000
      5 O5          -5.9920     1.9760    -0.2910 os         1 89P      -0.111100
      6 N6          -6.2260     0.6630    -0.0130 nc         1 89P      -0.341300
      7 C7          -5.0870     0.0610    -0.1810 cd         1 89P       0.407800
      8 C8          -4.0720     0.9650    -0.5860 cd         1 89P      -0.340900
      9 C9          -2.6470     0.6670    -0.8550 c3         1 89P       0.222700
     10 O10         -1.9220     0.8750     0.3480 os         1 89P      -0.322900
     11 C11         -0.5910     0.6710     0.3330 ca         1 89P       0.122100
     12 C12          0.0900     0.9400     1.5220 ca         1 89P      -0.192500
     13 C13          1.4570     0.7620     1.5970 ca         1 89P      -0.090500
     14 C14          2.1960     0.3140     0.4970 cp         1 89P      -0.036000
     15 C15          1.5000     0.0440    -0.6780 ca         1 89P      -0.090500
     16 C16          0.1260     0.2160    -0.7710 ca         1 89P      -0.192500
     17 C17          3.6580     0.1420     0.5780 cp         1 89P      -0.070000
     18 C18          4.2610    -0.3070     1.7820 ca         1 89P      -0.140000
     19 C19          5.6130    -0.4690     1.8870 ca         1 89P      -0.160300
     20 C20          6.4620    -0.1930     0.7890 ca         1 89P       0.400600
     21 N21          7.7960    -0.3580     0.9280 nb         1 89P      -0.641000
     22 C22          8.5810    -0.0990    -0.0880 ca         1 89P       0.374800
     23 C23          8.0800     0.3490    -1.3360 ca         1 89P      -0.197300
     24 C24          6.7380     0.5240    -1.4980 ca         1 89P      -0.136000
     25 C25          5.8690     0.2500    -0.4180 ca         1 89P      -0.167300
     26 C26          4.4720     0.4130    -0.4980 ca         1 89P      -0.093000
     27 C27         10.0910    -0.2930     0.0940 c          1 89P       0.821100
     28 O28         10.7870    -0.0570    -0.9120 o          1 89P      -0.800300
     29 O29         10.4770    -0.6610     1.2140 o          1 89P      -0.800300
     30 C30         -4.9430    -1.3860     0.0400 ca         1 89P      -0.122500
     31 C31         -4.7660    -1.9110     1.3190 ca         1 89P       0.057900
     32 CL32        -4.7280    -0.8410     2.6730 cl         1 89P      -0.085900
     33 C33         -4.6090    -3.2700     1.5320 ca         1 89P      -0.124500
     34 C34         -4.6220    -4.1300     0.4450 ca         1 89P      -0.102000
     35 C35         -4.7830    -3.6420    -0.8430 ca         1 89P      -0.124500
     36 C36         -4.9380    -2.2790    -1.0280 ca         1 89P       0.057900
     37 CL37        -5.1220    -1.6660    -2.6340 cl         1 89P      -0.085900
     38 H1          -4.7410     5.2250    -2.1790 hc         1 89P       0.044367
     39 H1A         -5.3230     3.6950    -2.8300 hc         1 89P       0.044367
     40 H1B         -6.1540     4.4560    -1.4680 hc         1 89P       0.044367
     41 H2          -3.2690     3.4320    -1.4090 hc         1 89P       0.069700
     42 H3          -5.0130     4.4880     0.8710 hc         1 89P       0.044367
     43 H3A         -3.3770     3.8400     1.0400 hc         1 89P       0.044367
     44 H3B         -3.6510     5.3240     0.1260 hc         1 89P       0.044367
     45 H9          -2.5350    -0.3680    -1.1960 h1         1 89P       0.044700
     46 H9A         -2.2630     1.3140    -1.6510 h1         1 89P       0.044700
     47 H12         -0.4600     1.2990     2.3830 ha         1 89P       0.132000
     48 H13          1.9590     1.0010     2.5260 ha         1 89P       0.135500
     49 H15          2.0280    -0.3320    -1.5460 ha         1 89P       0.135500
     50 H16         -0.3620    -0.0210    -1.7070 ha         1 89P       0.132000
     51 H18          3.6340    -0.5440     2.6320 ha         1 89P       0.116000
     52 H19          6.0580    -0.8200     2.8100 ha         1 89P       0.145000
     53 H23          8.7690     0.5490    -2.1430 ha         1 89P       0.160000
     54 H24          6.3290     0.8690    -2.4400 ha         1 89P       0.112000
     55 H26          4.0500     0.7830    -1.4250 ha         1 89P       0.116000
     56 H33         -4.4760    -3.6530     2.5340 ha         1 89P       0.153000
     57 H34         -4.5010    -5.1920     0.6020 ha         1 89P       0.141000
     58 H35         -4.7860    -4.3140    -1.6900 ha         1 89P       0.153000
@<TRIPOS>BOND
     1     1     2 1   
     2     1    38 1   
     3     1    39 1   
     4     1    40 1   
     5     2     3 1   
     6     2     4 1   
     7     2    41 1   
     8     3    42 1   
     9     3    43 1   
    10     3    44 1   
    11     4     5 1   
    12     4     8 2   
    13     5     6 1   
    14     6     7 2   
    15     7     8 1   
    16     7    30 1   
    17     8     9 1   
    18     9    10 1   
    19     9    45 1   
    20     9    46 1   
    21    10    11 1   
    22    11    12 ar  
    23    11    16 ar  
    24    12    13 ar  
    25    12    47 1   
    26    13    14 ar  
    27    13    48 1   
    28    14    15 ar  
    29    14    17 1   
    30    15    16 ar  
    31    15    49 1   
    32    16    50 1   
    33    17    18 ar  
    34    17    26 ar  
    35    18    19 ar  
    36    18    51 1   
    37    19    20 ar  
    38    19    52 1   
    39    20    21 ar  
    40    20    25 ar  
    41    21    22 ar  
    42    22    23 ar  
    43    22    27 1   
    44    23    24 ar  
    45    23    53 1   
    46    24    25 ar  
    47    24    54 1   
    48    25    26 ar  
    49    26    55 1   
    50    27    28 1   
    51    27    29 1   
    52    30    31 ar  
    53    30    36 ar  
    54    31    32 1   
    55    31    33 ar  
    56    33    34 ar  
    57    33    56 1   
    58    34    35 ar  
    59    34    57 1   
    60    35    36 ar  
    61    35    58 1   
    62    36    37 1   
@<TRIPOS>SUBSTRUCTURE
     1 89P         1 TEMP              0 ****  ****    0 ROOT
