@<TRIPOS>MOLECULE
89Q
   27    28     1     0     0
SMALL
No Charge or Current Charge


@<TRIPOS>ATOM
      1 C4          14.8770    14.0360     8.8130 ca         1 89Q      -0.189000
      2 C5          13.7010    14.5920     9.3340 ca         1 89Q       0.170100
      3 C6          11.2530    14.8150     9.1580 c3         1 89Q       0.194600
      4 C11         15.0170    15.6970    11.0690 ca         1 89Q      -0.031500
      5 C7          10.1780    14.2750     8.2240 cx         1 89Q      -0.135700
      6 C8           9.9060    14.9250     6.8860 cx         1 89Q      -0.121400
      7 C9           8.8890    15.0340     7.9990 cx         1 89Q      -0.121400
      8 C10         13.7750    15.4260    10.4680 ca         1 89Q      -0.189000
      9 N1          17.6190    16.2090    12.2530 nt         1 89Q      -0.606000
     10 C3          16.1200    14.3030     9.4100 ca         1 89Q      -0.031500
     11 O1          18.5930    14.9320    10.7280 o          1 89Q      -0.608100
     12 C2          16.2080    15.1380    10.5470 ca         1 89Q      -0.196600
     13 O2          12.5110    14.2920     8.7040 os         1 89Q      -0.340100
     14 H1          14.8250    13.3920     7.9390 ha         1 89Q       0.125000
     15 H2          11.2560    15.9130     9.1300 h1         1 89Q       0.038200
     16 H3          11.0420    14.4890    10.1850 h1         1 89Q       0.038200
     17 H4          15.0350    16.3450    11.9420 ha         1 89Q       0.122500
     18 H5          10.1020    13.1910     8.2670 hc         1 89Q       0.090700
     19 H6          10.4720    15.8170     6.6270 hc         1 89Q       0.074450
     20 H7           9.6720    14.2760     6.0450 hc         1 89Q       0.074450
     21 H8           8.7720    16.0010     8.4830 hc         1 89Q       0.074450
     22 H9           7.9710    14.4580     7.9050 hc         1 89Q       0.074450
     23 H10         12.8830    15.8730    10.8970 ha         1 89Q       0.125000
     24 H11         18.5160    16.3950    12.6760 hn         1 89Q       0.311000
     25 H12         16.7790    16.6130    12.6350 hn         1 89Q       0.311000
     26 H13         17.0170    13.8580     8.9840 ha         1 89Q       0.122500
     27 C1          17.5590    15.4080    11.1680 c          1 89Q       0.622700
@<TRIPOS>BOND
     1     1     2 ar  
     2     1    10 ar  
     3     1    14 1   
     4     2     8 ar  
     5     2    13 1   
     6     3     5 1   
     7     3    13 1   
     8     3    15 1   
     9     3    16 1   
    10     4     8 ar  
    11     4    12 ar  
    12     4    17 1   
    13     5     6 1   
    14     5     7 1   
    15     5    18 1   
    16     6     7 1   
    17     6    19 1   
    18     6    20 1   
    19     7    21 1   
    20     7    22 1   
    21     8    23 1   
    22     9    24 1   
    23     9    25 1   
    24     9    27 1   
    25    10    12 ar  
    26    10    26 1   
    27    11    27 2   
    28    12    27 1   
@<TRIPOS>SUBSTRUCTURE
     1 89Q         1 TEMP              0 ****  ****    0 ROOT
