@<TRIPOS>MOLECULE
89Q
   27    28     1     0     0
SMALL
abcg2


@<TRIPOS>ATOM
      1 C4          14.8680    14.0560     8.8220 ca         1 89Q      -0.189000
      2 C5          13.6920    14.6560     9.2840 ca         1 89Q       0.170100
      3 C6          11.3240    14.8460     9.1100 c3         1 89Q       0.194600
      4 C11         14.9820    15.8220    10.9460 ca         1 89Q      -0.031500
      5 C7          10.2290    14.2460     8.2880 cx         1 89Q      -0.135700
      6 C8           9.9260    14.8120     6.9350 cx         1 89Q      -0.121400
      7 C9           8.9800    15.0440     8.0720 cx         1 89Q      -0.121400
      8 C10         13.7590    15.5530    10.3490 ca         1 89Q      -0.189000
      9 N1          17.5060    15.9860    12.3540 nt         1 89Q      -0.606000
     10 C3          16.0770    14.3450     9.4190 ca         1 89Q      -0.031500
     11 O1          18.5210    15.2740    10.4750 o          1 89Q      -0.608100
     12 C2          16.1550    15.2210    10.5040 ca         1 89Q      -0.196600
     13 O2          12.5620    14.3210     8.6460 os         1 89Q      -0.340100
     14 H1          14.8210    13.3640     7.9910 ha         1 89Q       0.125000
     15 H2          11.3150    15.9380     9.0160 h1         1 89Q       0.038200
     16 H3          11.1870    14.6020    10.1690 h1         1 89Q       0.038200
     17 H4          14.9950    16.5390    11.7570 ha         1 89Q       0.122500
     18 H5          10.1020    13.1750     8.4090 hc         1 89Q       0.090700
     19 H6          10.5210    15.6490     6.5900 hc         1 89Q       0.074450
     20 H7           9.6310    14.1240     6.1530 hc         1 89Q       0.074450
     21 H8           8.9320    16.0390     8.4980 hc         1 89Q       0.074450
     22 H9           8.0360    14.5150     8.0760 hc         1 89Q       0.074450
     23 H10         12.8780    16.0550    10.7230 ha         1 89Q       0.125000
     24 H11         18.3900    16.1530    12.8060 hn         1 89Q       0.311000
     25 H12         16.6900    16.0050    12.9410 hn         1 89Q       0.311000
     26 H13         16.9750    13.8730     9.0440 ha         1 89Q       0.122500
     27 C1          17.4930    15.4910    11.1030 c          1 89Q       0.622700
@<TRIPOS>BOND
     1     1     2 ar  
     2     1    10 ar  
     3     1    14 1   
     4     2     8 ar  
     5     2    13 1   
     6     3     5 1   
     7     3    13 1   
     8     3    15 1   
     9     3    16 1   
    10     4     8 ar  
    11     4    12 ar  
    12     4    17 1   
    13     5     6 1   
    14     5     7 1   
    15     5    18 1   
    16     6     7 1   
    17     6    19 1   
    18     6    20 1   
    19     7    21 1   
    20     7    22 1   
    21     8    23 1   
    22     9    24 1   
    23     9    25 1   
    24     9    27 1   
    25    10    12 ar  
    26    10    26 1   
    27    11    27 2   
    28    12    27 1   
@<TRIPOS>SUBSTRUCTURE
     1 89Q         1 TEMP              0 ****  ****    0 ROOT
