@<TRIPOS>MOLECULE
89S
   84    86     1     0     0
SMALL
No Charge or Current Charge


@<TRIPOS>ATOM
      1 CAA        -13.2170     2.4040     1.8640 c3         1 89S      -0.088100
      2 CAM        -12.2730     2.0980     0.6860 c3         1 89S      -0.075400
      3 CAO        -10.7800     2.1370     1.0810 c3         1 89S      -0.075400
      4 CAP         -9.8340     1.8300    -0.1010 c3         1 89S      -0.074400
      5 CAQ         -8.3410     1.8690     0.2950 c3         1 89S      -0.074400
      6 CAR         -7.3950     1.5630    -0.8870 c3         1 89S      -0.072400
      7 CAS         -5.9030     1.6020    -0.4910 c3         1 89S      -0.101400
      8 CAT         -4.9610     1.2960    -1.6730 c3         1 89S       0.103000
      9 NBB         -3.5510     1.3600    -1.2840 ns         1 89S      -0.498900
     10 C           -2.8690     0.3580    -0.6180 c          1 89S       0.608100
     11 O           -3.4210    -0.6950    -0.3190 o          1 89S      -0.593100
     12 CA          -1.3750     0.6730    -0.2790 c3         1 89S       0.041700
     13 N           -0.6740    -0.5050     0.2920 ns         1 89S      -0.485900
     14 CBF         -0.2660    -1.6160    -0.4180 c          1 89S       0.604100
     15 OAD         -0.5530    -1.7920    -1.5950 o          1 89S      -0.605100
     16 CBK          0.5870    -2.6310     0.3710 c6         1 89S      -0.137700
     17 CAW          2.0520    -2.7050    -0.1320 c6         1 89S      -0.064400
     18 CAU          2.8910    -3.6780     0.7340 c6         1 89S      -0.072400
     19 CBJ          2.2380    -5.0880     0.8200 c6         1 89S      -0.063700
     20 CAN          3.1250    -6.0520     1.6650 c3         1 89S       0.154800
     21 NAB          2.6540    -7.4500     1.6750 n8         1 89S      -0.996200
     22 CAV          0.7840    -4.9750     1.3740 c6         1 89S      -0.072400
     23 CAX         -0.0850    -4.0200     0.5190 c6         1 89S      -0.064400
     24 CB          -0.5860     1.3370    -1.4470 c3         1 89S      -0.047100
     25 CG           0.9160     1.4270    -1.1790 ca         1 89S      -0.119300
     26 CD2          1.4040     2.2310    -0.1320 ca         1 89S      -0.070000
     27 CE2          2.7830     2.2840     0.1350 ca         1 89S      -0.170000
     28 CD1          1.8240     0.6860    -1.9610 ca         1 89S      -0.070000
     29 CE1          3.2030     0.7380    -1.6940 ca         1 89S      -0.170000
     30 CZ           3.6870     1.5390    -0.6370 ca         1 89S       0.143100
     31 OH           5.0270     1.6210    -0.3200 os         1 89S      -0.343100
     32 CAY          6.0290     0.8730    -1.0290 c3         1 89S       0.206900
     33 CBG          7.3870     1.1790    -0.4120 ca         1 89S      -0.050300
     34 CAG          7.8910     0.4140     0.6560 ca         1 89S      -0.151000
     35 CAE          9.1480     0.7320     1.2000 ca         1 89S       0.333900
     36 NBA          9.9120     1.7520     0.7430 nb         1 89S      -0.660000
     37 CAF          9.4270     2.4900    -0.2840 ca         1 89S       0.333900
     38 CAH          8.1810     2.2400    -0.8840 ca         1 89S      -0.151000
     39 H1         -14.2630     2.3650     1.5360 hc         1 89S       0.031033
     40 H2         -13.0830     1.6720     2.6700 hc         1 89S       0.031033
     41 H3         -13.0210     3.4040     2.2690 hc         1 89S       0.031033
     42 H4         -12.5160     1.1080     0.2820 hc         1 89S       0.036200
     43 H5         -12.4560     2.8250    -0.1150 hc         1 89S       0.036200
     44 H6         -10.5410     3.1280     1.4860 hc         1 89S       0.037200
     45 H7         -10.6010     1.4110     1.8840 hc         1 89S       0.037200
     46 H8         -10.0730     0.8390    -0.5060 hc         1 89S       0.037200
     47 H9         -10.0130     2.5560    -0.9030 hc         1 89S       0.037200
     48 H10         -8.1020     2.8600     0.7000 hc         1 89S       0.038200
     49 H11         -8.1620     1.1430     1.0970 hc         1 89S       0.038200
     50 H12         -7.6340     0.5710    -1.2920 hc         1 89S       0.039200
     51 H13         -7.5740     2.2890    -1.6900 hc         1 89S       0.039200
     52 H14         -5.6620     2.5930    -0.0880 hc         1 89S       0.044700
     53 H15         -5.7250     0.8760     0.3120 hc         1 89S       0.044700
     54 H16         -5.1800     0.2970    -2.0740 h1         1 89S       0.056200
     55 H17         -5.1340     2.0250    -2.4760 h1         1 89S       0.056200
     56 H18         -3.0350     2.2070    -1.4910 hn         1 89S       0.312500
     57 H19         -1.4210     1.4190     0.5250 h1         1 89S       0.066700
     58 H20         -0.3930    -0.4690     1.2640 hn         1 89S       0.321500
     59 H21          0.6520    -2.2240     1.3900 hc         1 89S       0.045700
     60 H22          2.0690    -3.0350    -1.1800 hc         1 89S       0.054450
     61 H23          2.5080    -1.7060    -0.1120 hc         1 89S       0.054450
     62 H24          3.9030    -3.7590     0.3120 hc         1 89S       0.037950
     63 H25          3.0100    -3.2610     1.7430 hc         1 89S       0.037950
     64 H26          2.1970    -5.5120    -0.1930 hc         1 89S       0.066700
     65 H27          4.1460    -6.0410     1.2600 h1         1 89S       0.024700
     66 H28          3.1640    -5.6880     2.7010 h1         1 89S       0.024700
     67 H29          3.2460    -7.9970     2.3110 hn         1 89S       0.392000
     68 H30          1.7290    -7.4830     2.1190 hn         1 89S       0.392000
     69 H32          0.3060    -5.9640     1.3990 hc         1 89S       0.037950
     70 H33          0.8090    -4.6170     2.4130 hc         1 89S       0.037950
     71 H34         -1.0790    -3.9110     0.9750 hc         1 89S       0.054450
     72 H35         -0.2460    -4.4600    -0.4750 hc         1 89S       0.054450
     73 H36         -0.7720     0.7740    -2.3690 hc         1 89S       0.061700
     74 H37         -0.9800     2.3450    -1.6270 hc         1 89S       0.061700
     75 H38          0.7160     2.8100     0.4800 ha         1 89S       0.117000
     76 H39          3.1530     2.9030     0.9480 ha         1 89S       0.123500
     77 H40          1.4600     0.0570    -2.7710 ha         1 89S       0.117000
     78 H41          3.8740     0.1490    -2.3120 ha         1 89S       0.123500
     79 H42          5.8310    -0.2040    -0.9570 h1         1 89S       0.047200
     80 H43          6.0400     1.1500    -2.0920 h1         1 89S       0.047200
     81 H44          7.3220    -0.4150     1.0660 ha         1 89S       0.129000
     82 H45          9.5570     0.1530     2.0270 h4         1 89S       0.020100
     83 H46         10.0570     3.3070    -0.6340 h4         1 89S       0.020100
     84 H47          7.8430     2.8680    -1.7040 ha         1 89S       0.129000
@<TRIPOS>BOND
     1     1     2 1   
     2     1    39 1   
     3     1    40 1   
     4     1    41 1   
     5     2     3 1   
     6     2    42 1   
     7     2    43 1   
     8     3     4 1   
     9     3    44 1   
    10     3    45 1   
    11     4     5 1   
    12     4    46 1   
    13     4    47 1   
    14     5     6 1   
    15     5    48 1   
    16     5    49 1   
    17     6     7 1   
    18     6    50 1   
    19     6    51 1   
    20     7     8 1   
    21     7    52 1   
    22     7    53 1   
    23     8     9 1   
    24     8    54 1   
    25     8    55 1   
    26     9    10 1   
    27     9    56 1   
    28    10    11 2   
    29    10    12 1   
    30    12    13 1   
    31    12    24 1   
    32    12    57 1   
    33    13    14 1   
    34    13    58 1   
    35    14    15 2   
    36    14    16 1   
    37    16    17 1   
    38    16    23 1   
    39    16    59 1   
    40    17    18 1   
    41    17    60 1   
    42    17    61 1   
    43    18    19 1   
    44    18    62 1   
    45    18    63 1   
    46    19    20 1   
    47    19    22 1   
    48    19    64 1   
    49    20    21 1   
    50    20    65 1   
    51    20    66 1   
    52    21    67 1   
    53    21    68 1   
    54    22    23 1   
    55    22    69 1   
    56    22    70 1   
    57    23    71 1   
    58    23    72 1   
    59    24    25 1   
    60    24    73 1   
    61    24    74 1   
    62    25    26 ar  
    63    25    28 ar  
    64    26    27 ar  
    65    26    75 1   
    66    27    30 ar  
    67    27    76 1   
    68    28    29 ar  
    69    28    77 1   
    70    29    30 ar  
    71    29    78 1   
    72    30    31 1   
    73    31    32 1   
    74    32    33 1   
    75    32    79 1   
    76    32    80 1   
    77    33    34 ar  
    78    33    38 ar  
    79    34    35 ar  
    80    34    81 1   
    81    35    36 ar  
    82    35    82 1   
    83    36    37 ar  
    84    37    38 ar  
    85    37    83 1   
    86    38    84 1   
@<TRIPOS>SUBSTRUCTURE
     1 89S         1 TEMP              0 ****  ****    0 ROOT
