@<TRIPOS>MOLECULE
89S
   84    86     1     0     0
SMALL
bcc


@<TRIPOS>ATOM
      1 CAA        -12.7580     3.4740     1.4270 c3         1 89S      -0.088100
      2 CAM        -11.9050     2.5410     0.5800 c3         1 89S      -0.075400
      3 CAO        -10.4130     2.6860     0.8530 c3         1 89S      -0.075400
      4 CAP         -9.5510     1.7570     0.0070 c3         1 89S      -0.074400
      5 CAQ         -8.0590     1.9070     0.2800 c3         1 89S      -0.074400
      6 CAR         -7.1960     0.9860    -0.5740 c3         1 89S      -0.072400
      7 CAS         -5.7050     1.1650    -0.3170 c3         1 89S      -0.101400
      8 CAT         -4.8530     0.2530    -1.1930 c3         1 89S       0.103000
      9 NBB         -3.4320     0.4640    -1.0180 ns         1 89S      -0.565900
     10 C           -2.7100    -0.1370    -0.0650 c          1 89S       0.675100
     11 O           -3.1730    -0.9650     0.7050 o          1 89S      -0.593100
     12 CA          -1.2530     0.3240     0.0850 c3         1 89S       0.041700
     13 N           -0.4210    -0.8010     0.4240 ns         1 89S      -0.552900
     14 CBF         -0.3070    -1.8850    -0.3610 c          1 89S       0.671100
     15 OAD         -0.9780    -2.0260    -1.3760 o          1 89S      -0.605100
     16 CBK          0.6940    -2.9190     0.1070 c6         1 89S      -0.137700
     17 CAW          1.5870    -3.3860    -1.0420 c6         1 89S      -0.064400
     18 CAU          2.5890    -4.4280    -0.5600 c6         1 89S      -0.072400
     19 CBJ          1.9070    -5.6260     0.0980 c6         1 89S      -0.063700
     20 CAN          2.9470    -6.6320     0.5790 c3         1 89S       0.154800
     21 NAB          2.3410    -7.8410     1.1190 n8         1 89S      -0.885800
     22 CAV          0.9820    -5.1580     1.2210 c6         1 89S      -0.072400
     23 CAX         -0.0230    -4.1150     0.7410 c6         1 89S      -0.064400
     24 CB          -0.6720     1.1480    -1.0810 c3         1 89S      -0.047100
     25 CG           0.7760     1.4690    -0.8480 ca         1 89S      -0.119300
     26 CD2          1.1570     2.5120    -0.0040 ca         1 89S      -0.088000
     27 CE2          2.4870     2.7710     0.2670 ca         1 89S      -0.188000
     28 CD1          1.7820     0.7000    -1.4150 ca         1 89S      -0.088000
     29 CE1          3.1270     0.9420    -1.1580 ca         1 89S      -0.188000
     30 CZ           3.4850     1.9810    -0.3060 ca         1 89S       0.143100
     31 OH           4.7570     2.3010     0.0170 os         1 89S      -0.319900
     32 CAY          5.8030     1.5150    -0.4980 c3         1 89S       0.183700
     33 CBG          7.1060     1.9950     0.0680 ca         1 89S      -0.050300
     34 CAG          7.1950     2.7480     1.2320 ca         1 89S      -0.234300
     35 CAE          8.4510     3.1130     1.6960 ca         1 89S       0.399200
     36 NBA          9.5880     2.7840     1.0950 nb         1 89S      -0.660000
     37 CAF          9.4970     2.0620    -0.0160 ca         1 89S       0.399200
     38 CAH          8.2950     1.6490    -0.5650 ca         1 89S      -0.234300
     39 H1         -13.8220     3.3430     1.2230 hc         1 89S       0.031033
     40 H2         -12.6030     3.2940     2.4930 hc         1 89S       0.031033
     41 H3         -12.5120     4.5200     1.2320 hc         1 89S       0.031033
     42 H4         -12.2070     1.5040     0.7610 hc         1 89S       0.036200
     43 H5         -12.0980     2.7310    -0.4810 hc         1 89S       0.036200
     44 H6         -10.1120     3.7240     0.6730 hc         1 89S       0.037200
     45 H7         -10.2200     2.4940     1.9150 hc         1 89S       0.037200
     46 H8          -9.8510     0.7190     0.1880 hc         1 89S       0.037200
     47 H9          -9.7450     1.9490    -1.0540 hc         1 89S       0.037200
     48 H10         -7.7610     2.9460     0.1020 hc         1 89S       0.038200
     49 H11         -7.8620     1.7110     1.3390 hc         1 89S       0.038200
     50 H12         -7.4790    -0.0560    -0.3850 hc         1 89S       0.039200
     51 H13         -7.4070     1.1720    -1.6330 hc         1 89S       0.039200
     52 H14         -5.4230     2.2050    -0.5060 hc         1 89S       0.044700
     53 H15         -5.4830     0.9630     0.7350 hc         1 89S       0.044700
     54 H16         -5.0850    -0.7930    -0.9900 h1         1 89S       0.056200
     55 H17         -5.0800     0.4300    -2.2460 h1         1 89S       0.056200
     56 H18         -2.9990     1.1530    -1.6080 hn         1 89S       0.312500
     57 H19         -1.2570     0.9690     0.9680 h1         1 89S       0.066700
     58 H20          0.1940    -0.7090     1.2140 hn         1 89S       0.321500
     59 H21          1.3330    -2.4680     0.8750 hc         1 89S       0.045700
     60 H22          0.9650    -3.8130    -1.8330 hc         1 89S       0.054450
     61 H23          2.1150    -2.5350    -1.4810 hc         1 89S       0.054450
     62 H24          3.1970    -4.7660    -1.4030 hc         1 89S       0.037950
     63 H25          3.2790    -3.9620     0.1540 hc         1 89S       0.037950
     64 H26          1.2880    -6.1230    -0.6610 hc         1 89S       0.066700
     65 H27          3.5650    -6.9200    -0.2760 h1         1 89S       0.024700
     66 H28          3.6210    -6.1260     1.2880 h1         1 89S       0.024700
     67 H29          3.0640    -8.5290     1.2860 hn         1 89S       0.336800
     68 H30          1.9410    -7.6490     2.0280 hn         1 89S       0.336800
     69 H32          0.4400    -6.0060     1.6460 hc         1 89S       0.037950
     70 H33          1.5840    -4.7320     2.0330 hc         1 89S       0.037950
     71 H34         -0.6420    -3.7810     1.5780 hc         1 89S       0.054450
     72 H35         -0.6980    -4.5660     0.0070 hc         1 89S       0.054450
     73 H36         -0.7860     0.6030    -2.0190 hc         1 89S       0.061700
     74 H37         -1.2360     2.0800    -1.1680 hc         1 89S       0.061700
     75 H38          0.4000     3.1390     0.4540 ha         1 89S       0.135000
     76 H39          2.7630     3.5880     0.9220 ha         1 89S       0.141500
     77 H40          1.5220    -0.1140    -2.0820 ha         1 89S       0.135000
     78 H41          3.8680     0.3130    -1.6330 ha         1 89S       0.141500
     79 H42          5.6690     0.4590    -0.2300 h1         1 89S       0.047200
     80 H43          5.8360     1.5670    -1.5930 h1         1 89S       0.047200
     81 H44          6.3170     3.0550     1.7820 ha         1 89S       0.147000
     82 H45          8.5350     3.7030     2.6030 h4         1 89S       0.020100
     83 H46         10.4310     1.8010    -0.5030 h4         1 89S       0.020100
     84 H47          8.2930     1.0680    -1.4790 ha         1 89S       0.147000
@<TRIPOS>BOND
     1     1     2 1   
     2     1    39 1   
     3     1    40 1   
     4     1    41 1   
     5     2     3 1   
     6     2    42 1   
     7     2    43 1   
     8     3     4 1   
     9     3    44 1   
    10     3    45 1   
    11     4     5 1   
    12     4    46 1   
    13     4    47 1   
    14     5     6 1   
    15     5    48 1   
    16     5    49 1   
    17     6     7 1   
    18     6    50 1   
    19     6    51 1   
    20     7     8 1   
    21     7    52 1   
    22     7    53 1   
    23     8     9 1   
    24     8    54 1   
    25     8    55 1   
    26     9    10 1   
    27     9    56 1   
    28    10    11 2   
    29    10    12 1   
    30    12    13 1   
    31    12    24 1   
    32    12    57 1   
    33    13    14 1   
    34    13    58 1   
    35    14    15 2   
    36    14    16 1   
    37    16    17 1   
    38    16    23 1   
    39    16    59 1   
    40    17    18 1   
    41    17    60 1   
    42    17    61 1   
    43    18    19 1   
    44    18    62 1   
    45    18    63 1   
    46    19    20 1   
    47    19    22 1   
    48    19    64 1   
    49    20    21 1   
    50    20    65 1   
    51    20    66 1   
    52    21    67 1   
    53    21    68 1   
    54    22    23 1   
    55    22    69 1   
    56    22    70 1   
    57    23    71 1   
    58    23    72 1   
    59    24    25 1   
    60    24    73 1   
    61    24    74 1   
    62    25    26 ar  
    63    25    28 ar  
    64    26    27 ar  
    65    26    75 1   
    66    27    30 ar  
    67    27    76 1   
    68    28    29 ar  
    69    28    77 1   
    70    29    30 ar  
    71    29    78 1   
    72    30    31 1   
    73    31    32 1   
    74    32    33 1   
    75    32    79 1   
    76    32    80 1   
    77    33    34 ar  
    78    33    38 ar  
    79    34    35 ar  
    80    34    81 1   
    81    35    36 ar  
    82    35    82 1   
    83    36    37 ar  
    84    37    38 ar  
    85    37    83 1   
    86    38    84 1   
@<TRIPOS>SUBSTRUCTURE
     1 89S         1 TEMP              0 ****  ****    0 ROOT
