@<TRIPOS>MOLECULE
89T
   53    55     1     0     0
SMALL
bcc


@<TRIPOS>ATOM
      1 CBC          9.0390    -4.8890    -5.1480 c3         1 89T       0.116700
      2 OBB          8.7280    -6.2120    -5.5040 os         1 89T      -0.397600
      3 CAZ          9.7200    -7.1460    -5.1750 c3         1 89T       0.120400
      4 CAY          9.9150    -7.3820    -3.6790 c3         1 89T       0.202500
      5 CBA         11.0080    -8.4250    -3.4650 c3         1 89T      -0.119100
      6 NAX          8.6530    -7.7640    -3.0800 nu         1 89T      -0.863900
      7 CAA          8.3910    -7.6910    -1.7560 ca         1 89T       0.746200
      8 NAB          9.2870    -7.0740    -0.9850 nb         1 89T      -0.824000
      9 CAF          7.2010    -8.2290    -1.2310 ca         1 89T      -0.365300
     10 CAE          6.9950    -8.1220     0.1250 ca         1 89T      -0.011000
     11 CAD          7.9280    -7.4910     0.9390 ca         1 89T      -0.156700
     12 NAG          7.7710    -7.3530     2.3400 nu         1 89T      -0.701500
     13 SAH          8.1830    -8.6230     3.3170 s6         1 89T       1.399800
     14 OAJ          7.9880    -8.1550     4.6780 o          1 89T      -0.619300
     15 OAK          9.4910    -9.0800     2.8920 o          1 89T      -0.619300
     16 NAI          7.1120    -9.8290     2.9280 n3         1 89T      -0.753500
     17 CAL          5.7550    -9.6270     3.4170 c3         1 89T       0.179100
     18 CAM          7.5920   -11.2010     3.0710 c3         1 89T       0.179100
     19 CAC          9.0740    -6.9620     0.3170 ca         1 89T       0.772200
     20 NAN          9.9870    -6.3020     1.0940 nu         1 89T      -0.727300
     21 CAO         11.1930    -5.7050     0.7760 ca         1 89T       0.220600
     22 CAT         11.7910    -5.7410    -0.4750 ca         1 89T      -0.188000
     23 CAS         13.0110    -5.0740    -0.5920 ca         1 89T      -0.044200
     24 NAW         13.8650    -4.8870    -1.6220 na         1 89T      -0.029100
     25 NAV         14.9180    -4.1660    -1.2450 nc         1 89T      -0.174400
     26 NAU         14.8020    -3.8650    -0.0090 nd         1 89T      -0.213400
     27 CAR         13.6370    -4.4010     0.4560 ca         1 89T      -0.021600
     28 CAQ         13.0290    -4.3750     1.7180 ca         1 89T      -0.017000
     29 CAP         11.8310    -5.0210     1.8570 ca         1 89T      -0.203000
     30 H1           8.2850    -4.2410    -5.5930 h1         1 89T       0.032367
     31 H2           9.0290    -4.7250    -4.0660 h1         1 89T       0.032367
     32 H3          10.0220    -4.5830    -5.5270 h1         1 89T       0.032367
     33 H4           9.4300    -8.0870    -5.6520 h1         1 89T       0.049200
     34 H5          10.6930    -6.8560    -5.5980 h1         1 89T       0.049200
     35 H6          10.2340    -6.4500    -3.2080 h1         1 89T       0.076700
     36 H7          11.1660    -8.6100    -2.4030 hc         1 89T       0.046033
     37 H8          10.7430    -9.3710    -3.9400 hc         1 89T       0.046033
     38 H9          11.9550    -8.0860    -3.8880 hc         1 89T       0.046033
     39 H10          8.0320    -8.3330    -3.6330 hn         1 89T       0.440800
     40 H11          6.4800    -8.7160    -1.8730 ha         1 89T       0.145000
     41 H12          6.0950    -8.5300     0.5680 ha         1 89T       0.136000
     42 H13          6.9950    -6.7960     2.6810 hn         1 89T       0.436800
     43 H14          5.4080    -8.6160     3.2090 h1         1 89T       0.049533
     44 H15          5.1000   -10.3090     2.8770 h1         1 89T       0.049533
     45 H16          5.6550    -9.8220     4.4870 h1         1 89T       0.049533
     46 H17          6.8560   -11.8510     2.6000 h1         1 89T       0.049533
     47 H18          8.5360   -11.3370     2.5520 h1         1 89T       0.049533
     48 H19          7.7040   -11.5090     4.1140 h1         1 89T       0.049533
     49 H20          9.7150    -6.2320     2.0630 hn         1 89T       0.458800
     50 H21         11.3360    -6.2500    -1.3070 ha         1 89T       0.173000
     51 H22         13.7950    -5.2100    -2.5760 hn         1 89T       0.325700
     52 H23         13.4840    -3.8640     2.5560 ha         1 89T       0.153000
     53 H24         11.3390    -5.0140     2.8220 ha         1 89T       0.136000
@<TRIPOS>BOND
     1     1     2 1   
     2     1    30 1   
     3     1    31 1   
     4     1    32 1   
     5     2     3 1   
     6     3     4 1   
     7     3    33 1   
     8     3    34 1   
     9     4     5 1   
    10     4     6 1   
    11     4    35 1   
    12     5    36 1   
    13     5    37 1   
    14     5    38 1   
    15     6     7 1   
    16     6    39 1   
    17     7     8 ar  
    18     7     9 ar  
    19     8    19 ar  
    20     9    10 ar  
    21     9    40 1   
    22    10    11 ar  
    23    10    41 1   
    24    11    12 1   
    25    11    19 ar  
    26    12    13 1   
    27    12    42 1   
    28    13    14 2   
    29    13    15 2   
    30    13    16 1   
    31    16    17 1   
    32    16    18 1   
    33    17    43 1   
    34    17    44 1   
    35    17    45 1   
    36    18    46 1   
    37    18    47 1   
    38    18    48 1   
    39    19    20 1   
    40    20    21 1   
    41    20    49 1   
    42    21    22 ar  
    43    21    29 ar  
    44    22    23 ar  
    45    22    50 1   
    46    23    24 1   
    47    23    27 ar  
    48    24    25 1   
    49    24    51 1   
    50    25    26 2   
    51    26    27 1   
    52    27    28 ar  
    53    28    29 ar  
    54    28    52 1   
    55    29    53 1   
@<TRIPOS>SUBSTRUCTURE
     1 89T         1 TEMP              0 ****  ****    0 ROOT
