@<TRIPOS>MOLECULE
89T
   53    55     1     0     0
SMALL
No Charge or Current Charge


@<TRIPOS>ATOM
      1 CBC          8.8080    -4.3520    -4.7500 c3         1 89T       0.139900
      2 OBB          8.4960    -5.5800    -5.4380 os         1 89T      -0.444000
      3 CAZ          9.4920    -6.6300    -5.3480 c3         1 89T       0.143600
      4 CAY          9.6340    -7.1570    -3.8830 c3         1 89T       0.202500
      5 CBA         10.5630    -8.3870    -3.8220 c3         1 89T      -0.119100
      6 NAX          8.3170    -7.5100    -3.3080 nu         1 89T      -0.919100
      7 CAA          7.9270    -7.4730    -1.9920 ca         1 89T       0.680900
      8 NAB          8.8550    -7.0880    -1.1230 nb         1 89T      -0.824000
      9 CAF          6.6160    -7.7960    -1.6410 ca         1 89T      -0.282000
     10 CAE          6.2320    -7.7280    -0.2950 ca         1 89T       0.007000
     11 CAD          7.1850    -7.3430     0.6630 ca         1 89T       0.047000
     12 NAG          6.7560    -7.2600     2.0250 nu         1 89T      -0.895100
     13 SAH          7.5590    -7.7100     3.3990 s6         1 89T       1.258200
     14 OAJ          6.5510    -8.1100     4.3760 o          1 89T      -0.548500
     15 OAK          8.4970    -6.6160     3.6480 o          1 89T      -0.548500
     16 NAI          8.4580    -9.0790     2.9250 n3         1 89T      -0.753500
     17 CAL          7.6560   -10.2090     2.4100 c3         1 89T       0.179100
     18 CAM          9.4580    -9.5060     3.9220 c3         1 89T       0.179100
     19 CAC          8.5050    -7.0380     0.1660 ca         1 89T       0.706900
     20 NAN          9.4950    -6.5460     0.9940 nu         1 89T      -0.920900
     21 CAO         10.8530    -6.2630     0.8890 ca         1 89T       0.359000
     22 CAT         11.6970    -6.8680    -0.0690 ca         1 89T      -0.170000
     23 CAS         13.0540    -6.5200    -0.0590 ca         1 89T      -0.044200
     24 NAW         14.0840    -6.9350    -0.8500 na         1 89T      -0.079400
     25 NAV         15.2450    -6.2940    -0.4290 nc         1 89T      -0.174400
     26 NAU         14.9410    -5.5030     0.6020 nd         1 89T      -0.213400
     27 CAR         13.5820    -5.6460     0.8300 ca         1 89T      -0.021600
     28 CAQ         12.7810    -5.0390     1.8060 ca         1 89T       0.001000
     29 CAP         11.4060    -5.3630     1.8300 ca         1 89T      -0.185000
     30 H1           8.0390    -3.5970    -4.9540 h1         1 89T       0.032367
     31 H2           8.8490    -4.5040    -3.6640 h1         1 89T       0.032367
     32 H3           9.7740    -3.9520    -5.0840 h1         1 89T       0.032367
     33 H4           9.2000    -7.4660    -5.9960 h1         1 89T       0.049200
     34 H5          10.4680    -6.2700    -5.7010 h1         1 89T       0.049200
     35 H6          10.0990    -6.3540    -3.2940 h1         1 89T       0.076700
     36 H7          10.6750    -8.7430    -2.7910 hc         1 89T       0.046033
     37 H8          10.1620    -9.2110    -4.4250 hc         1 89T       0.046033
     38 H9          11.5590    -8.1350    -4.2030 hc         1 89T       0.046033
     39 H10          7.5440    -7.6000    -3.9610 hn         1 89T       0.496000
     40 H11          5.9010    -8.0930    -2.4010 ha         1 89T       0.127000
     41 H12          5.2120    -7.9690    -0.0040 ha         1 89T       0.118000
     42 H13          5.7990    -7.5180     2.2310 hn         1 89T       0.492000
     43 H14          7.0200    -9.9050     1.5690 h1         1 89T       0.049533
     44 H15          8.3090   -11.0150     2.0510 h1         1 89T       0.049533
     45 H16          7.0080   -10.6220     3.1950 h1         1 89T       0.049533
     46 H17         10.0690   -10.3300     3.5310 h1         1 89T       0.049533
     47 H18         10.1380    -8.6820     4.1760 h1         1 89T       0.049533
     48 H19          8.9720    -9.8490     4.8460 h1         1 89T       0.049533
     49 H20          9.1160    -6.3910     1.9260 hn         1 89T       0.514000
     50 H21         11.3200    -7.5920    -0.7800 ha         1 89T       0.155000
     51 H22         14.0680    -7.5930    -1.6240 hn         1 89T       0.376000
     52 H23         13.2080    -4.3420     2.5250 ha         1 89T       0.135000
     53 H24         10.7680    -4.9060     2.5810 ha         1 89T       0.118000
@<TRIPOS>BOND
     1     1     2 1   
     2     1    30 1   
     3     1    31 1   
     4     1    32 1   
     5     2     3 1   
     6     3     4 1   
     7     3    33 1   
     8     3    34 1   
     9     4     5 1   
    10     4     6 1   
    11     4    35 1   
    12     5    36 1   
    13     5    37 1   
    14     5    38 1   
    15     6     7 1   
    16     6    39 1   
    17     7     8 ar  
    18     7     9 ar  
    19     8    19 ar  
    20     9    10 ar  
    21     9    40 1   
    22    10    11 ar  
    23    10    41 1   
    24    11    12 1   
    25    11    19 ar  
    26    12    13 1   
    27    12    42 1   
    28    13    14 2   
    29    13    15 2   
    30    13    16 1   
    31    16    17 1   
    32    16    18 1   
    33    17    43 1   
    34    17    44 1   
    35    17    45 1   
    36    18    46 1   
    37    18    47 1   
    38    18    48 1   
    39    19    20 1   
    40    20    21 1   
    41    20    49 1   
    42    21    22 ar  
    43    21    29 ar  
    44    22    23 ar  
    45    22    50 1   
    46    23    24 1   
    47    23    27 ar  
    48    24    25 1   
    49    24    51 1   
    50    25    26 2   
    51    26    27 1   
    52    27    28 ar  
    53    28    29 ar  
    54    28    52 1   
    55    29    53 1   
@<TRIPOS>SUBSTRUCTURE
     1 89T         1 TEMP              0 ****  ****    0 ROOT
