@<TRIPOS>MOLECULE
89U
   41    44     1     0     0
SMALL
No Charge or Current Charge


@<TRIPOS>ATOM
      1 C01          5.0160     2.0570    -0.1300 ca         1 89U      -0.123000
      2 C02          4.0450     2.8060     0.5530 ca         1 89U      -0.086000
      3 C03          2.7570     2.2790     0.7440 ca         1 89U      -0.113000
      4 C04          2.4240     0.9960     0.2530 ca         1 89U      -0.005300
      5 C05          3.4180     0.2320    -0.4010 ca         1 89U      -0.163100
      6 C06          4.7060     0.7720    -0.6030 ca         1 89U      -0.056000
      7 C07          1.0650     0.4410     0.3580 cc         1 89U      -0.017400
      8 C08          0.9760    -1.0190     0.4950 ca         1 89U      -0.005300
      9 C09          1.9340    -1.8290    -0.1510 ca         1 89U      -0.163100
     10 C10          3.1040    -1.1760    -0.8320 c          1 89U       0.595300
     11 C11         -0.0120    -1.6300     1.2970 ca         1 89U      -0.113000
     12 C12         -0.1050    -3.0290     1.3740 ca         1 89U      -0.086000
     13 C13          0.8060    -3.8310     0.6700 ca         1 89U      -0.123000
     14 C14          1.8310    -3.2350    -0.0820 ca         1 89U      -0.056000
     15 O15          3.7880    -1.7710    -1.6590 o          1 89U      -0.527100
     16 C16         -0.0410     1.2610     0.2730 cf         1 89U      -0.112200
     17 C17         -1.5010     1.0610     0.1220 ca         1 89U      -0.065800
     18 C18         -2.3670     2.1220     0.4490 ca         1 89U      -0.094000
     19 C19         -3.7590     1.9900     0.3070 ca         1 89U      -0.175000
     20 C20         -4.3110     0.7890    -0.1900 ca         1 89U       0.121100
     21 C21         -3.4440    -0.2690    -0.5540 ca         1 89U       0.107100
     22 C22         -2.0530    -0.1250    -0.4070 ca         1 89U      -0.157000
     23 O23         -3.9420    -1.4390    -1.0670 oh         1 89U      -0.515100
     24 O24         -5.6780     0.6200    -0.3440 os         1 89U      -0.317100
     25 C25         -6.6260     1.6460    -0.0010 c3         1 89U       0.144900
     26 H1           6.0130     2.4660    -0.2810 ha         1 89U       0.119000
     27 H2           4.2900     3.7960     0.9320 ha         1 89U       0.116000
     28 H3           2.0260     2.8760     1.2830 ha         1 89U       0.120500
     29 H4           5.4750     0.1900    -1.1080 ha         1 89U       0.134000
     30 H6          -0.7190    -1.0190     1.8520 ha         1 89U       0.120500
     31 H7          -0.8820    -3.4900     1.9800 ha         1 89U       0.116000
     32 H8           0.7360    -4.9150     0.7290 ha         1 89U       0.119000
     33 H9           2.5630    -3.8650    -0.5840 ha         1 89U       0.134000
     34 H10          0.2170     2.3150     0.1820 ha         1 89U       0.180000
     35 H12         -1.9600     3.0550     0.8340 ha         1 89U       0.115000
     36 H13         -4.3890     2.8290     0.5860 ha         1 89U       0.121000
     37 H14         -1.4010    -0.9250    -0.7420 ha         1 89U       0.126000
     38 H15         -3.1940    -2.0450    -1.2510 ho         1 89U       0.462000
     39 H16         -6.5550     1.9020     1.0640 h1         1 89U       0.041033
     40 H17         -6.4520     2.5520    -0.5950 h1         1 89U       0.041033
     41 H18         -7.6480     1.3000    -0.1990 h1         1 89U       0.041033
@<TRIPOS>BOND
     1     1     2 ar  
     2     1     6 ar  
     3     1    26 1   
     4     2     3 ar  
     5     2    27 1   
     6     3     4 ar  
     7     3    28 1   
     8     4     5 ar  
     9     4     7 1   
    10     5     6 ar  
    11     5    10 1   
    12     6    29 1   
    13     7     8 1   
    14     7    16 2   
    15     8     9 ar  
    16     8    11 ar  
    17     9    10 1   
    18     9    14 ar  
    19    10    15 2   
    20    11    12 ar  
    21    11    30 1   
    22    12    13 ar  
    23    12    31 1   
    24    13    14 ar  
    25    13    32 1   
    26    14    33 1   
    27    16    17 1   
    28    16    34 1   
    29    17    18 ar  
    30    17    22 ar  
    31    18    19 ar  
    32    18    35 1   
    33    19    20 ar  
    34    19    36 1   
    35    20    21 ar  
    36    20    24 1   
    37    21    22 ar  
    38    21    23 1   
    39    22    37 1   
    40    23    38 1   
    41    24    25 1   
    42    25    39 1   
    43    25    40 1   
    44    25    41 1   
@<TRIPOS>SUBSTRUCTURE
     1 89U         1 TEMP              0 ****  ****    0 ROOT
