@<TRIPOS>MOLECULE
89U
   41    44     1     0     0
SMALL
bcc


@<TRIPOS>ATOM
      1 C01          5.0340     1.9210    -0.2190 ca         1 89U      -0.141000
      2 C02          4.0820     2.7700     0.3420 ca         1 89U      -0.104000
      3 C03          2.7860     2.3340     0.5460 ca         1 89U      -0.131000
      4 C04          2.4070     1.0330     0.2070 ca         1 89U      -0.005300
      5 C05          3.3770     0.1740    -0.3280 ca         1 89U      -0.163100
      6 C06          4.6780     0.6300    -0.5530 ca         1 89U      -0.074000
      7 C07          1.0200     0.5490     0.3400 cc         1 89U      -0.017400
      8 C08          0.8670    -0.9000     0.5330 ca         1 89U      -0.005300
      9 C09          1.8300    -1.7700     0.0040 ca         1 89U      -0.163100
     10 C10          3.0460    -1.2320    -0.6380 c          1 89U       0.595300
     11 C11         -0.1890    -1.4440     1.2680 ca         1 89U      -0.131000
     12 C12         -0.3120    -2.8120     1.4200 ca         1 89U      -0.104000
     13 C13          0.6140    -3.6750     0.8370 ca         1 89U      -0.141000
     14 C14          1.6840    -3.1520     0.1380 ca         1 89U      -0.074000
     15 O15          3.7790    -1.9320    -1.3140 o          1 89U      -0.527100
     16 C16         -0.0020     1.4170     0.2000 cf         1 89U      -0.062200
     17 C17         -1.4340     1.1520     0.0590 ca         1 89U      -0.065800
     18 C18         -2.3480     2.0110     0.6540 ca         1 89U      -0.112000
     19 C19         -3.7170     1.8000     0.5240 ca         1 89U      -0.193000
     20 C20         -4.1980     0.7420    -0.2320 ca         1 89U       0.121100
     21 C21         -3.2790    -0.1110    -0.8760 ca         1 89U       0.107100
     22 C22         -1.9240     0.1000    -0.7260 ca         1 89U      -0.175000
     23 O23         -3.7990    -1.1020    -1.6270 oh         1 89U      -0.476100
     24 O24         -5.4940     0.4530    -0.4290 os         1 89U      -0.293900
     25 C25         -6.4630     1.2740     0.1920 c3         1 89U       0.121700
     26 H1           6.0460     2.2670    -0.3810 ha         1 89U       0.137000
     27 H2           4.3560     3.7760     0.6290 ha         1 89U       0.134000
     28 H3           2.0700     3.0090     0.9960 ha         1 89U       0.138500
     29 H4           5.4120    -0.0420    -0.9780 ha         1 89U       0.152000
     30 H6          -0.9110    -0.7920     1.7390 ha         1 89U       0.138500
     31 H7          -1.1320    -3.2130     2.0000 ha         1 89U       0.134000
     32 H8           0.5090    -4.7450     0.9520 ha         1 89U       0.137000
     33 H9           2.4300    -3.8100    -0.2870 ha         1 89U       0.152000
     34 H10          0.2520     2.4700     0.1270 ha         1 89U       0.130000
     35 H12         -1.9990     2.8520     1.2410 ha         1 89U       0.133000
     36 H13         -4.3980     2.4800     1.0180 ha         1 89U       0.139000
     37 H14         -1.2310    -0.5530    -1.2440 ha         1 89U       0.144000
     38 H15         -3.0910    -1.6230    -2.0230 ho         1 89U       0.423000
     39 H16         -6.3700     1.2610     1.2810 h1         1 89U       0.041033
     40 H17         -6.4040     2.3090    -0.1540 h1         1 89U       0.041033
     41 H18         -7.4330     0.8670    -0.0820 h1         1 89U       0.041033
@<TRIPOS>BOND
     1     1     2 ar  
     2     1     6 ar  
     3     1    26 1   
     4     2     3 ar  
     5     2    27 1   
     6     3     4 ar  
     7     3    28 1   
     8     4     5 ar  
     9     4     7 1   
    10     5     6 ar  
    11     5    10 1   
    12     6    29 1   
    13     7     8 1   
    14     7    16 2   
    15     8     9 ar  
    16     8    11 ar  
    17     9    10 1   
    18     9    14 ar  
    19    10    15 2   
    20    11    12 ar  
    21    11    30 1   
    22    12    13 ar  
    23    12    31 1   
    24    13    14 ar  
    25    13    32 1   
    26    14    33 1   
    27    16    17 1   
    28    16    34 1   
    29    17    18 ar  
    30    17    22 ar  
    31    18    19 ar  
    32    18    35 1   
    33    19    20 ar  
    34    19    36 1   
    35    20    21 ar  
    36    20    24 1   
    37    21    22 ar  
    38    21    23 1   
    39    22    37 1   
    40    23    38 1   
    41    24    25 1   
    42    25    39 1   
    43    25    40 1   
    44    25    41 1   
@<TRIPOS>SUBSTRUCTURE
     1 89U         1 TEMP              0 ****  ****    0 ROOT
