@<TRIPOS>MOLECULE
89V
   18    17     1     0     0
SMALL
No Charge or Current Charge


@<TRIPOS>ATOM
      1 OXT         -2.0040    -0.9350    -0.9940 o          1 89V      -0.715500
      2 C           -1.4890    -0.1460    -0.2110 c          1 89V       0.694000
      3 O           -2.1100     0.3610     0.7180 o          1 89V      -0.715500
      4 CA          -0.1050     0.5000    -0.5910 c3         1 89V       0.033300
      5 CB           1.1050    -0.1990     0.1310 c3         1 89V       0.175000
      6 CG2          2.4560     0.3250    -0.4200 c3         1 89V      -0.107100
      7 CG1          1.0610    -0.0400     1.6730 c3         1 89V      -0.107100
      8 O1           1.0670    -1.6010    -0.1480 oh         1 89V      -0.629000
      9 O2          -0.1060     1.9410    -0.3490 oh         1 89V      -0.717000
     10 H2           0.0230     0.3270    -1.6680 h1         1 89V       0.044700
     11 H3           2.5860     1.3900    -0.1950 hc         1 89V       0.027200
     12 H4           3.3000    -0.2160     0.0250 hc         1 89V       0.027200
     13 H5           2.5100     0.1990    -1.5090 hc         1 89V       0.027200
     14 H6           0.1500    -0.4820     2.0940 hc         1 89V       0.027200
     15 H7           1.9190    -0.5380     2.1420 hc         1 89V       0.027200
     16 H8           1.0930     1.0170     1.9610 hc         1 89V       0.027200
     17 H9           1.8610    -1.9940     0.2690 ho         1 89V       0.404000
     18 H10         -0.8030     2.0840     0.3370 ho         1 89V       0.477000
@<TRIPOS>BOND
     1     1     2 1   
     2     2     3 1   
     3     2     4 1   
     4     4     5 1   
     5     4     9 1   
     6     4    10 1   
     7     5     6 1   
     8     5     7 1   
     9     5     8 1   
    10     6    11 1   
    11     6    12 1   
    12     6    13 1   
    13     7    14 1   
    14     7    15 1   
    15     7    16 1   
    16     8    17 1   
    17     9    18 1   
@<TRIPOS>SUBSTRUCTURE
     1 89V         1 TEMP              0 ****  ****    0 ROOT
