@<TRIPOS>MOLECULE
89V
   18    17     1     0     0
SMALL
bcc


@<TRIPOS>ATOM
      1 OXT         -1.8320    -1.1570    -0.4520 o          1 89V      -0.820800
      2 C           -1.4530    -0.0270    -0.1220 c          1 89V       0.904600
      3 O           -2.0810     0.8090     0.5750 o          1 89V      -0.820800
      4 CA          -0.0680     0.4750    -0.6020 c3         1 89V       0.010100
      5 CB           1.1110    -0.2310     0.1050 c3         1 89V       0.151800
      6 CG2          2.4290     0.3870    -0.3650 c3         1 89V      -0.107100
      7 CG1          1.0020    -0.1170     1.6240 c3         1 89V      -0.107100
      8 O1           1.0620    -1.5910    -0.2950 oh         1 89V      -0.566800
      9 O2          -0.0030     1.8600    -0.3780 oh         1 89V      -0.654800
     10 H2           0.0280     0.2670    -1.6780 h1         1 89V       0.044700
     11 H3           2.5070     1.4380    -0.0920 hc         1 89V       0.027200
     12 H4           3.2760    -0.1330     0.0890 hc         1 89V       0.027200
     13 H5           2.5310     0.3110    -1.4500 hc         1 89V       0.027200
     14 H6           0.1160    -0.6270     2.0050 hc         1 89V       0.027200
     15 H7           1.8750    -0.5660     2.1030 hc         1 89V       0.027200
     16 H8           0.9590     0.9240     1.9440 hc         1 89V       0.027200
     17 H9           1.8420    -2.0260     0.0660 ho         1 89V       0.365000
     18 H10         -0.7890     1.9990     0.1870 ho         1 89V       0.438000
@<TRIPOS>BOND
     1     1     2 1   
     2     2     3 1   
     3     2     4 1   
     4     4     5 1   
     5     4     9 1   
     6     4    10 1   
     7     5     6 1   
     8     5     7 1   
     9     5     8 1   
    10     6    11 1   
    11     6    12 1   
    12     6    13 1   
    13     7    14 1   
    14     7    15 1   
    15     7    16 1   
    16     8    17 1   
    17     9    18 1   
@<TRIPOS>SUBSTRUCTURE
     1 89V         1 TEMP              0 ****  ****    0 ROOT
