@<TRIPOS>MOLECULE
89W
   31    32     1     0     0
SMALL
bcc


@<TRIPOS>ATOM
      1 C10          0.4660     3.9610    -8.4040 ca         1 89W      -0.151600
      2 C13         -0.9140     4.0930    -5.9860 ca         1 89W      -0.108000
      3 C15         -0.2470     2.8580    -7.9390 ca         1 89W      -0.091500
      4 O01          2.2620     4.6110    -9.8080 o          1 89W      -0.598100
      5 C02          1.2520     3.9320    -9.6790 c          1 89W       0.682700
      6 N03          0.7730     3.1240   -10.6410 ns         1 89W      -0.570900
      7 C04          1.4010     2.9420   -11.9330 c6         1 89W       0.105700
      8 C05          0.6960     3.7430   -13.0270 c6         1 89W      -0.093400
      9 C06          1.3100     3.4480   -14.3910 c6         1 89W      -0.073400
     10 C07          1.3390     1.9490   -14.6510 c6         1 89W       0.158800
     11 N08          2.0610     1.2830   -13.5820 n7         1 89W      -0.807200
     12 C09          1.4190     1.4590   -12.2960 c6         1 89W       0.150800
     13 C11          0.4950     5.1250    -7.6390 ca         1 89W      -0.091500
     14 C12         -0.2010     5.1950    -6.4420 ca         1 89W      -0.137500
     15 C14         -0.9310     2.9240    -6.7330 ca         1 89W      -0.137500
     16 H1          -1.4510     4.1450    -5.0470 ha         1 89W       0.133000
     17 H2          -0.2550     1.9280    -8.4950 ha         1 89W       0.140500
     18 H3          -0.1400     2.7140   -10.5180 hn         1 89W       0.309500
     19 H4           2.4330     3.2860   -11.8480 h1         1 89W       0.098700
     20 H5           0.7450     4.8110   -12.7990 hc         1 89W       0.044200
     21 H6          -0.3650     3.4680   -13.0370 hc         1 89W       0.044200
     22 H7           2.3300     3.8390   -14.4310 hc         1 89W       0.051200
     23 H8           0.7420     3.9510   -15.1770 hc         1 89W       0.051200
     24 H9           0.3030     1.5850   -14.7510 h1         1 89W       0.029700
     25 H10          1.8420     1.7400   -15.5970 h1         1 89W       0.029700
     26 H11          2.1440     0.2960   -13.7850 hn         1 89W       0.360800
     27 H13          0.3810     1.0810   -12.2820 h1         1 89W       0.030700
     28 H14          1.9750     0.9040   -11.5370 h1         1 89W       0.030700
     29 H15          1.0560     5.9820    -7.9850 ha         1 89W       0.140500
     30 H16         -0.1840     6.1080    -5.8630 ha         1 89W       0.134500
     31 H17         -1.4720     2.0570    -6.3750 ha         1 89W       0.134500
@<TRIPOS>BOND
     1     1     3 ar  
     2     1     5 1   
     3     1    13 ar  
     4     2    14 ar  
     5     2    15 ar  
     6     2    16 1   
     7     3    15 ar  
     8     3    17 1   
     9     4     5 2   
    10     5     6 1   
    11     6     7 1   
    12     6    18 1   
    13     7     8 1   
    14     7    12 1   
    15     7    19 1   
    16     8     9 1   
    17     8    20 1   
    18     8    21 1   
    19     9    10 1   
    20     9    22 1   
    21     9    23 1   
    22    10    11 1   
    23    10    24 1   
    24    10    25 1   
    25    11    12 1   
    26    11    26 1   
    27    12    27 1   
    28    12    28 1   
    29    13    14 ar  
    30    13    29 1   
    31    14    30 1   
    32    15    31 1   
@<TRIPOS>SUBSTRUCTURE
     1 89W         1 TEMP              0 ****  ****    0 ROOT
