@<TRIPOS>MOLECULE
89W
   31    32     1     0     0
SMALL
No Charge or Current Charge


@<TRIPOS>ATOM
      1 C10          0.4040     4.0850    -8.4090 ca         1 89W      -0.151600
      2 C13         -0.9420     4.1060    -5.9130 ca         1 89W      -0.090000
      3 C15         -0.4700     3.0290    -8.0480 ca         1 89W      -0.073500
      4 O01          1.8950     5.0210   -10.0450 o          1 89W      -0.598100
      5 C02          1.1400     4.1090    -9.7340 c          1 89W       0.615700
      6 N03          0.9240     3.0450   -10.5830 ns         1 89W      -0.503900
      7 C04          1.5140     2.8850   -11.9230 c6         1 89W       0.105700
      8 C05          0.6890     3.6710   -12.9760 c6         1 89W      -0.093400
      9 C06          1.2540     3.4380   -14.4010 c6         1 89W      -0.073400
     10 C07          1.3350     1.9270   -14.7300 c6         1 89W       0.158800
     11 N08          2.1170     1.1950   -13.7050 n7         1 89W      -0.862400
     12 C09          1.5760     1.3820   -12.3330 c6         1 89W       0.150800
     13 C11          0.5870     5.1490    -7.4940 ca         1 89W      -0.073500
     14 C12         -0.0810     5.1580    -6.2570 ca         1 89W      -0.119500
     15 C14         -1.1360     3.0430    -6.8090 ca         1 89W      -0.119500
     16 H1          -1.4590     4.1140    -4.9560 ha         1 89W       0.115000
     17 H2          -0.6480     2.1880    -8.7130 ha         1 89W       0.122500
     18 H3           0.2880     2.3310   -10.2560 hn         1 89W       0.309500
     19 H4           2.5420     3.2780   -11.9060 h1         1 89W       0.098700
     20 H5           0.7020     4.7440   -12.7430 hc         1 89W       0.044200
     21 H6          -0.3620     3.3530   -12.9410 hc         1 89W       0.044200
     22 H7           2.2540     3.8850   -14.4820 hc         1 89W       0.051200
     23 H8           0.6230     3.9460   -15.1430 hc         1 89W       0.051200
     24 H9           0.3180     1.5090   -14.7800 h1         1 89W       0.029700
     25 H10          1.8000     1.7870   -15.7170 h1         1 89W       0.029700
     26 H11          2.1070     0.1920   -13.9340 hn         1 89W       0.416000
     27 H13          0.5670     0.9470   -12.2800 h1         1 89W       0.030700
     28 H14          2.2090     0.8360   -11.6180 h1         1 89W       0.030700
     29 H15          1.2500     5.9760    -7.7400 ha         1 89W       0.122500
     30 H16          0.0710     5.9840    -5.5650 ha         1 89W       0.116500
     31 H17         -1.8040     2.2270    -6.5430 ha         1 89W       0.116500
@<TRIPOS>BOND
     1     1     3 ar  
     2     1     5 1   
     3     1    13 ar  
     4     2    14 ar  
     5     2    15 ar  
     6     2    16 1   
     7     3    15 ar  
     8     3    17 1   
     9     4     5 2   
    10     5     6 1   
    11     6     7 1   
    12     6    18 1   
    13     7     8 1   
    14     7    12 1   
    15     7    19 1   
    16     8     9 1   
    17     8    20 1   
    18     8    21 1   
    19     9    10 1   
    20     9    22 1   
    21     9    23 1   
    22    10    11 1   
    23    10    24 1   
    24    10    25 1   
    25    11    12 1   
    26    11    26 1   
    27    12    27 1   
    28    12    28 1   
    29    13    14 ar  
    30    13    29 1   
    31    14    30 1   
    32    15    31 1   
@<TRIPOS>SUBSTRUCTURE
     1 89W         1 TEMP              0 ****  ****    0 ROOT
