@<TRIPOS>MOLECULE
89X
   58    59     1     0     0
SMALL
abcg2


@<TRIPOS>ATOM
      1 O1          -3.6340     4.0240     0.4620 oh         1 89X      -0.418100
      2 N           -3.5920     2.7040     0.7870 ns         1 89X      -0.387400
      3 CA          -2.9390     1.8320     0.0060 c          1 89X       0.604100
      4 O2          -2.2410     2.1430    -0.9380 o          1 89X      -0.551100
      5 CB          -3.2110     0.3720     0.3900 c3         1 89X       0.091000
      6 N2          -2.0220    -0.4180     0.2080 ns         1 89X      -0.490900
      7 C3          -0.9100    -0.1790     0.9230 c          1 89X       0.585100
      8 O           -0.8450     0.7220     1.7410 o          1 89X      -0.602100
      9 C4           0.2380    -1.1600     0.6760 c3         1 89X       0.047700
     10 C5          -0.0450    -2.4710     1.4160 c3         1 89X      -0.083400
     11 C6           1.0430    -3.5380     1.2800 c3         1 89X      -0.055700
     12 C7           0.6130    -4.7960     2.0290 c3         1 89X      -0.091600
     13 C8           1.3580    -3.8610    -0.1760 c3         1 89X      -0.091600
     14 N3           1.4920    -0.6090     1.1020 ns         1 89X      -0.492900
     15 C9           2.0090     0.4790     0.4610 c          1 89X       0.645100
     16 O4           1.5390     0.8920    -0.5930 o          1 89X      -0.631100
     17 N4           3.0780     1.0460     1.0770 ns         1 89X      -0.508900
     18 C10          3.8650     2.0940     0.4690 c3         1 89X       0.156300
     19 C11          5.0660     1.5790    -0.2880 ca         1 89X      -0.124300
     20 C12          6.3510     1.7860     0.2030 ca         1 89X      -0.096000
     21 C13          7.4610     1.3010    -0.4780 ca         1 89X      -0.115500
     22 C14          7.2970     0.6020    -1.6650 ca         1 89X      -0.105000
     23 C15          6.0160     0.3890    -2.1640 ca         1 89X      -0.115500
     24 C16          4.9110     0.8740    -1.4820 ca         1 89X      -0.096000
     25 CG          -4.3370    -0.1500    -0.4720 ca         1 89X      -0.115300
     26 CD1         -5.5570    -0.4810     0.1060 ca         1 89X      -0.091500
     27 CE1         -6.6040    -0.9490    -0.6770 ca         1 89X      -0.110500
     28 CZ          -6.4370    -1.0920    -2.0480 ca         1 89X      -0.097000
     29 CE2         -5.2200    -0.7630    -2.6310 ca         1 89X      -0.110500
     30 CD2         -4.1750    -0.2910    -1.8490 ca         1 89X      -0.091500
     31 H1          -2.8900     4.4410     0.9160 ho         1 89X       0.443000
     32 H2          -4.1780     2.4300     1.5620 hn         1 89X       0.337500
     33 H3          -3.5240     0.3210     1.4380 h1         1 89X       0.064700
     34 H4          -2.0300    -1.1570    -0.4770 hn         1 89X       0.329500
     35 H5           0.2870    -1.3610    -0.3970 h1         1 89X       0.089700
     36 H6          -0.2080    -2.2540     2.4770 hc         1 89X       0.049700
     37 H7          -0.9890    -2.8810     1.0420 hc         1 89X       0.049700
     38 H8           1.9590    -3.1670     1.7520 hc         1 89X       0.049700
     39 H9          -0.2910    -5.2230     1.5880 hc         1 89X       0.035533
     40 H10          1.3910    -5.5590     1.9950 hc         1 89X       0.035533
     41 H11          0.4010    -4.5860     3.0790 hc         1 89X       0.035533
     42 H12          1.7550    -2.9980    -0.7130 hc         1 89X       0.035533
     43 H13          2.1050    -4.6540    -0.2440 hc         1 89X       0.035533
     44 H14          0.4650    -4.2020    -0.7050 hc         1 89X       0.035533
     45 H15          1.7480    -0.7600     2.0660 hn         1 89X       0.306500
     46 H16          3.4960     0.5640     1.8580 hn         1 89X       0.303500
     47 H17          3.2170     2.6690    -0.1910 h1         1 89X       0.067700
     48 H18          4.1950     2.7720     1.2570 h1         1 89X       0.067700
     49 H19          6.4870     2.3330     1.1290 ha         1 89X       0.120000
     50 H20          8.4540     1.4710    -0.0810 ha         1 89X       0.112000
     51 H21          8.1590     0.2260    -2.2000 ha         1 89X       0.111000
     52 H22          5.8800    -0.1540    -3.0910 ha         1 89X       0.112000
     53 H23          3.9180     0.7060    -1.8820 ha         1 89X       0.120000
     54 H24         -5.6920    -0.3790     1.1760 ha         1 89X       0.123000
     55 H25         -7.5480    -1.2070    -0.2150 ha         1 89X       0.117500
     56 H26         -7.2520    -1.4580    -2.6590 ha         1 89X       0.116000
     57 H27         -5.0830    -0.8710    -3.6990 ha         1 89X       0.117500
     58 H28         -3.2350    -0.0290    -2.3190 ha         1 89X       0.123000
@<TRIPOS>BOND
     1     1     2 1   
     2     1    31 1   
     3     2     3 1   
     4     2    32 1   
     5     3     4 2   
     6     3     5 1   
     7     5     6 1   
     8     5    25 1   
     9     5    33 1   
    10     6     7 1   
    11     6    34 1   
    12     7     8 2   
    13     7     9 1   
    14     9    10 1   
    15     9    14 1   
    16     9    35 1   
    17    10    11 1   
    18    10    36 1   
    19    10    37 1   
    20    11    12 1   
    21    11    13 1   
    22    11    38 1   
    23    12    39 1   
    24    12    40 1   
    25    12    41 1   
    26    13    42 1   
    27    13    43 1   
    28    13    44 1   
    29    14    15 1   
    30    14    45 1   
    31    15    16 2   
    32    15    17 1   
    33    17    18 1   
    34    17    46 1   
    35    18    19 1   
    36    18    47 1   
    37    18    48 1   
    38    19    20 ar  
    39    19    24 ar  
    40    20    21 ar  
    41    20    49 1   
    42    21    22 ar  
    43    21    50 1   
    44    22    23 ar  
    45    22    51 1   
    46    23    24 ar  
    47    23    52 1   
    48    24    53 1   
    49    25    26 ar  
    50    25    30 ar  
    51    26    27 ar  
    52    26    54 1   
    53    27    28 ar  
    54    27    55 1   
    55    28    29 ar  
    56    28    56 1   
    57    29    30 ar  
    58    29    57 1   
    59    30    58 1   
@<TRIPOS>SUBSTRUCTURE
     1 89X         1 TEMP              0 ****  ****    0 ROOT
