@<TRIPOS>MOLECULE
89X
   58    59     1     0     0
SMALL
No Charge or Current Charge


@<TRIPOS>ATOM
      1 O1          -5.6790     3.8550    -0.0190 oh         1 89X      -0.418100
      2 N           -5.1050     2.6600     0.5670 ns         1 89X      -0.387400
      3 CA          -3.9310     2.1050     0.0620 c          1 89X       0.604100
      4 O2          -3.2210     2.7070    -0.7400 o          1 89X      -0.551100
      5 CB          -3.6140     0.6700     0.5880 c3         1 89X       0.091000
      6 N2          -2.2900     0.1970     0.1380 ns         1 89X      -0.490900
      7 C3          -1.0980     0.5130     0.7550 c          1 89X       0.585100
      8 O           -1.0610     1.2370     1.7440 o          1 89X      -0.602100
      9 C4           0.1690    -0.1100     0.1000 c3         1 89X       0.047700
     10 C5           0.2220    -1.6480     0.3350 c3         1 89X      -0.083400
     11 C6           1.3350    -2.4190    -0.4300 c3         1 89X      -0.055700
     12 C7           1.4390    -3.8780     0.0700 c3         1 89X      -0.091600
     13 C8           1.1350    -2.3860    -1.9640 c3         1 89X      -0.091600
     14 N3           1.3910     0.5440     0.6250 ns         1 89X      -0.492900
     15 C9           2.4630     0.9310    -0.1310 c          1 89X       0.645100
     16 O4           2.5100     0.8310    -1.3450 o          1 89X      -0.631100
     17 N4           3.4770     1.4460     0.6270 ns         1 89X      -0.508900
     18 C10          4.7730     1.8700     0.0960 c3         1 89X       0.156300
     19 C11          5.8130     0.7680     0.2460 ca         1 89X      -0.124300
     20 C12          6.7300     0.7930     1.3160 ca         1 89X      -0.096000
     21 C13          7.6850    -0.2300     1.4540 ca         1 89X      -0.115500
     22 C14          7.7280    -1.2830     0.5250 ca         1 89X      -0.105000
     23 C15          6.8150    -1.3140    -0.5420 ca         1 89X      -0.115500
     24 C16          5.8600    -0.2920    -0.6810 ca         1 89X      -0.096000
     25 CG          -4.6900    -0.3340     0.1780 ca         1 89X      -0.115300
     26 CD1         -5.3380    -1.1160     1.1550 ca         1 89X      -0.091500
     27 CE1         -6.3270    -2.0430     0.7810 ca         1 89X      -0.110500
     28 CZ          -6.6730    -2.1960    -0.5710 ca         1 89X      -0.097000
     29 CE2         -6.0290    -1.4230    -1.5510 ca         1 89X      -0.110500
     30 CD2         -5.0400    -0.4960    -1.1790 ca         1 89X      -0.091500
     31 H1          -5.8640     4.4310     0.7600 ho         1 89X       0.443000
     32 H2          -5.7460     2.0650     1.0910 hn         1 89X       0.337500
     33 H3          -3.6020     0.7380     1.6830 h1         1 89X       0.064700
     34 H4          -2.2450    -0.4030    -0.6770 hn         1 89X       0.329500
     35 H5           0.0850     0.0930    -0.9750 h1         1 89X       0.089700
     36 H6           0.3410    -1.8230     1.4120 hc         1 89X       0.049700
     37 H7          -0.7460    -2.0890     0.0640 hc         1 89X       0.049700
     38 H8           2.2980    -1.9410    -0.2100 hc         1 89X       0.049700
     39 H9           0.5070    -4.4230    -0.1170 hc         1 89X       0.035533
     40 H10          2.2550    -4.4060    -0.4390 hc         1 89X       0.035533
     41 H11          1.6440    -3.9050     1.1480 hc         1 89X       0.035533
     42 H12          1.1510    -1.3610    -2.3500 hc         1 89X       0.035533
     43 H13          1.9350    -2.9410    -2.4690 hc         1 89X       0.035533
     44 H14          0.1770    -2.8420    -2.2430 hc         1 89X       0.035533
     45 H15          1.4420     0.7180     1.6200 hn         1 89X       0.306500
     46 H16          3.3390     1.4790     1.6280 hn         1 89X       0.303500
     47 H17          4.6720     2.1450    -0.9620 h1         1 89X       0.067700
     48 H18          5.0990     2.7670     0.6390 h1         1 89X       0.067700
     49 H19          6.7020     1.6030     2.0420 ha         1 89X       0.120000
     50 H20          8.3900    -0.2060     2.2820 ha         1 89X       0.112000
     51 H21          8.4670    -2.0740     0.6330 ha         1 89X       0.111000
     52 H22          6.8460    -2.1300    -1.2610 ha         1 89X       0.112000
     53 H23          5.1540    -0.3250    -1.5090 ha         1 89X       0.120000
     54 H24         -5.0760    -1.0100     2.2060 ha         1 89X       0.123000
     55 H25         -6.8240    -2.6430     1.5410 ha         1 89X       0.117500
     56 H26         -7.4390    -2.9140    -0.8600 ha         1 89X       0.116000
     57 H27         -6.2950    -1.5430    -2.5990 ha         1 89X       0.117500
     58 H28         -4.5470     0.0950    -1.9490 ha         1 89X       0.123000
@<TRIPOS>BOND
     1     1     2 1   
     2     1    31 1   
     3     2     3 1   
     4     2    32 1   
     5     3     4 2   
     6     3     5 1   
     7     5     6 1   
     8     5    25 1   
     9     5    33 1   
    10     6     7 1   
    11     6    34 1   
    12     7     8 2   
    13     7     9 1   
    14     9    10 1   
    15     9    14 1   
    16     9    35 1   
    17    10    11 1   
    18    10    36 1   
    19    10    37 1   
    20    11    12 1   
    21    11    13 1   
    22    11    38 1   
    23    12    39 1   
    24    12    40 1   
    25    12    41 1   
    26    13    42 1   
    27    13    43 1   
    28    13    44 1   
    29    14    15 1   
    30    14    45 1   
    31    15    16 2   
    32    15    17 1   
    33    17    18 1   
    34    17    46 1   
    35    18    19 1   
    36    18    47 1   
    37    18    48 1   
    38    19    20 ar  
    39    19    24 ar  
    40    20    21 ar  
    41    20    49 1   
    42    21    22 ar  
    43    21    50 1   
    44    22    23 ar  
    45    22    51 1   
    46    23    24 ar  
    47    23    52 1   
    48    24    53 1   
    49    25    26 ar  
    50    25    30 ar  
    51    26    27 ar  
    52    26    54 1   
    53    27    28 ar  
    54    27    55 1   
    55    28    29 ar  
    56    28    56 1   
    57    29    30 ar  
    58    29    57 1   
    59    30    58 1   
@<TRIPOS>SUBSTRUCTURE
     1 89X         1 TEMP              0 ****  ****    0 ROOT
