@<TRIPOS>MOLECULE
89Y
   18    18     1     0     0
SMALL
No Charge or Current Charge


@<TRIPOS>ATOM
      1 O10         -0.8580    -2.0250    -0.3830 oh         1 89Y      -0.667000
      2 C09         -0.6710    -0.5930    -0.5700 c5         1 89Y       0.073300
      3 C07         -1.7570     0.2940     0.1080 c          1 89Y       0.631100
      4 O08         -2.9060    -0.0200     0.3920 o          1 89Y      -0.477000
      5 O06         -1.1740     1.4630     0.5160 os         1 89Y      -0.414100
      6 C05          0.2110     1.4800     0.0860 c5         1 89Y       0.126600
      7 C03          0.6420    -0.0230     0.0520 c5         1 89Y       0.153000
      8 O04          0.8940    -0.5040     1.3800 oh         1 89Y      -0.622000
      9 C02          1.9260    -0.2970    -0.7810 c3         1 89Y       0.140600
     10 O01          3.0830     0.2190    -0.0890 oh         1 89Y      -0.733000
     11 H1          -1.8170    -2.2200    -0.5130 ho         1 89Y       0.520000
     12 H2          -0.7080    -0.3520    -1.6410 h1         1 89Y       0.052700
     13 H3           0.2670     1.9350    -0.9130 h1         1 89Y       0.074700
     14 H4           0.8140     2.0860     0.7750 h1         1 89Y       0.074700
     15 H5           1.8710    -0.4100     1.4770 ho         1 89Y       0.461000
     16 H6           2.0240    -1.3800    -0.9390 h1         1 89Y       0.043200
     17 H7           1.8220     0.1730    -1.7680 h1         1 89Y       0.043200
     18 H8           3.8640     0.0750    -0.6770 ho         1 89Y       0.519000
@<TRIPOS>BOND
     1     1     2 1   
     2     1    11 1   
     3     2     3 1   
     4     2     7 1   
     5     2    12 1   
     6     3     4 2   
     7     3     5 1   
     8     5     6 1   
     9     6     7 1   
    10     6    13 1   
    11     6    14 1   
    12     7     8 1   
    13     7     9 1   
    14     8    15 1   
    15     9    10 1   
    16     9    16 1   
    17     9    17 1   
    18    10    18 1   
@<TRIPOS>SUBSTRUCTURE
     1 89Y         1 TEMP              0 ****  ****    0 ROOT
