@<TRIPOS>MOLECULE
89Y
   18    18     1     0     0
SMALL
bcc


@<TRIPOS>ATOM
      1 O10         -0.8150    -1.9490    -0.2860 oh         1 89Y      -0.544800
      2 C09         -0.6550    -0.5930    -0.5170 c5         1 89Y       0.050100
      3 C07         -1.6690     0.2880     0.1970 c          1 89Y       0.706600
      4 O08         -2.8040     0.0290     0.4800 o          1 89Y      -0.552500
      5 O06         -1.1090     1.4640     0.4710 os         1 89Y      -0.390900
      6 C05          0.2760     1.4540     0.0840 c5         1 89Y       0.103400
      7 C03          0.6520    -0.0340     0.0290 c5         1 89Y       0.129800
      8 O04          0.8060    -0.5560     1.3230 oh         1 89Y      -0.559800
      9 C02          1.8590    -0.3120    -0.8440 c3         1 89Y       0.117400
     10 O01          2.9550     0.3440    -0.2510 oh         1 89Y      -0.610800
     11 H1          -1.5710    -2.2630    -0.7930 ho         1 89Y       0.421000
     12 H2          -0.7160    -0.3350    -1.5870 h1         1 89Y       0.052700
     13 H3           0.3780     1.9380    -0.8900 h1         1 89Y       0.074700
     14 H4           0.8430     2.0190     0.8220 h1         1 89Y       0.074700
     15 H5           1.6500    -0.2480     1.6730 ho         1 89Y       0.422000
     16 H6           2.0130    -1.3960    -0.9010 h1         1 89Y       0.043200
     17 H7           1.6680     0.0460    -1.8630 h1         1 89Y       0.043200
     18 H8           3.7680     0.0040    -0.6350 ho         1 89Y       0.420000
@<TRIPOS>BOND
     1     1     2 1   
     2     1    11 1   
     3     2     3 1   
     4     2     7 1   
     5     2    12 1   
     6     3     4 2   
     7     3     5 1   
     8     5     6 1   
     9     6     7 1   
    10     6    13 1   
    11     6    14 1   
    12     7     8 1   
    13     7     9 1   
    14     8    15 1   
    15     9    10 1   
    16     9    16 1   
    17     9    17 1   
    18    10    18 1   
@<TRIPOS>SUBSTRUCTURE
     1 89Y         1 TEMP              0 ****  ****    0 ROOT
