@<TRIPOS>MOLECULE
89Z
   33    35     1     0     0
SMALL
abcg2


@<TRIPOS>ATOM
      1 C4         -13.7990   -15.0630    10.5920 ca         1 89Z      -0.159000
      2 C14        -16.2250   -14.9920    10.4600 ca         1 89Z      -0.199600
      3 C5         -13.7250   -14.5810     9.2810 ca         1 89Z       0.182100
      4 C6         -11.3230   -14.6070     9.2910 c3         1 89Z       0.171600
      5 C11        -10.1620   -15.3870     7.1430 c5         1 89Z      -0.073900
      6 C7         -10.2090   -14.3810     8.2980 c5         1 89Z      -0.076700
      7 C8          -8.8210   -14.5230     8.9470 c5         1 89Z      -0.073900
      8 C9          -7.8560   -14.8880     7.7910 c5         1 89Z      -0.078900
      9 C10         -8.7530   -15.2040     6.5670 c5         1 89Z      -0.078900
     10 C12        -14.9070   -14.3040     8.5700 ca         1 89Z      -0.140000
     11 C13        -16.1390   -14.5040     9.1500 ca         1 89Z      -0.011000
     12 N1         -17.5320   -15.7520    12.4910 nc         1 89Z      -0.174400
     13 N2         -16.5000   -15.9990    13.1210 nd         1 89Z      -0.174400
     14 C3         -15.0480   -15.2660    11.1650 ca         1 89Z      -0.096600
     15 C1         -17.5020   -15.2210    11.1020 c          1 89Z       0.635100
     16 C2         -15.1560   -15.7770    12.5320 c          1 89Z       0.622100
     17 O2         -14.2320   -16.0470    13.2570 o          1 89Z      -0.439100
     18 O3         -12.5810   -14.3590     8.6250 os         1 89Z      -0.344100
     19 H1         -12.9140   -15.2830    11.1680 ha         1 89Z       0.145000
     20 H2         -11.3070   -15.6390     9.6520 h1         1 89Z       0.046200
     21 H3         -11.2430   -13.9310    10.1460 h1         1 89Z       0.046200
     22 H5         -10.2800   -16.3980     7.5480 hc         1 89Z       0.046450
     23 H6         -10.3110   -13.3710     7.8860 hc         1 89Z       0.066700
     24 H7          -8.8480   -15.3310     9.6840 hc         1 89Z       0.046450
     25 H8          -8.5230   -13.6160     9.4750 hc         1 89Z       0.046450
     26 H9          -7.2440   -15.7490     8.0620 hc         1 89Z       0.044950
     27 H10         -7.1710   -14.0680     7.5710 hc         1 89Z       0.044950
     28 H11         -8.4110   -16.0780     6.0120 hc         1 89Z       0.044950
     29 H12         -8.7510   -14.3590     5.8740 hc         1 89Z       0.044950
     30 H13        -14.8240   -13.9310     7.5580 ha         1 89Z       0.141000
     31 H14        -17.0440   -14.2900     8.6000 ha         1 89Z       0.144000
     32 O1         -18.5930   -15.0250    10.6170 o          1 89Z      -0.447100
     33 H4         -10.9500   -15.2310     6.4050 hc         1 89Z       0.046450
@<TRIPOS>BOND
     1     1     3 ar  
     2     1    14 ar  
     3     1    19 1   
     4     2    11 ar  
     5     2    14 ar  
     6     2    15 1   
     7     3    10 ar  
     8     3    18 1   
     9     4     6 1   
    10     4    18 1   
    11     4    20 1   
    12     4    21 1   
    13     5     6 1   
    14     5     9 1   
    15     5    22 1   
    16     5    33 1   
    17     6     7 1   
    18     6    23 1   
    19     7     8 1   
    20     7    24 1   
    21     7    25 1   
    22     8     9 1   
    23     8    26 1   
    24     8    27 1   
    25     9    28 1   
    26     9    29 1   
    27    10    11 ar  
    28    10    30 1   
    29    11    31 1   
    30    12    13 2   
    31    12    15 1   
    32    13    16 1   
    33    14    16 1   
    34    15    32 2   
    35    16    17 2   
@<TRIPOS>SUBSTRUCTURE
     1 89Z         1 TEMP              0 ****  ****    0 ROOT
