@<TRIPOS>MOLECULE
89Z
   33    35     1     0     0
SMALL
No Charge or Current Charge


@<TRIPOS>ATOM
      1 C4         -13.8740   -15.0750    10.6520 ca         1 89Z      -0.159000
      2 C14        -16.3000   -14.9570    10.4670 ca         1 89Z      -0.199600
      3 C5         -13.7480   -14.6730     9.3050 ca         1 89Z       0.182100
      4 C6         -11.2810   -14.7610     9.3650 c3         1 89Z       0.171600
      5 C11        -10.0890   -15.4610     7.1490 c5         1 89Z      -0.073900
      6 C7         -10.1330   -14.4980     8.3640 c5         1 89Z      -0.076700
      7 C8          -8.7180   -14.7590     8.9360 c5         1 89Z      -0.073900
      8 C9          -7.8270   -14.6070     7.6710 c5         1 89Z      -0.078900
      9 C10         -8.7310   -15.0890     6.4880 c5         1 89Z      -0.078900
     10 C12        -14.9000   -14.4160     8.5490 ca         1 89Z      -0.140000
     11 C13        -16.1740   -14.5560     9.1210 ca         1 89Z      -0.011000
     12 N1         -17.6430   -15.5180    12.4460 nc         1 89Z      -0.174400
     13 N2         -16.6230   -15.7850    13.2470 nd         1 89Z      -0.174400
     14 C3         -15.1530   -15.2190    11.2390 ca         1 89Z      -0.096600
     15 C1         -17.6430   -15.1180    11.1150 c          1 89Z       0.635100
     16 C2         -15.3170   -15.6490    12.6850 c          1 89Z       0.622100
     17 O2         -14.3400   -15.8850    13.3850 o          1 89Z      -0.439100
     18 O3         -12.5250   -14.5180     8.6850 os         1 89Z      -0.344100
     19 H1         -12.9920   -15.2780    11.2530 ha         1 89Z       0.145000
     20 H2         -11.2260   -15.7990     9.7190 h1         1 89Z       0.046200
     21 H3         -11.1710   -14.0880    10.2260 h1         1 89Z       0.046200
     22 H5         -10.1050   -16.5120     7.4660 hc         1 89Z       0.046450
     23 H6         -10.2330   -13.4550     8.0370 hc         1 89Z       0.066700
     24 H7          -8.6320   -15.7640     9.3670 hc         1 89Z       0.046450
     25 H8          -8.4440   -14.0460     9.7220 hc         1 89Z       0.046450
     26 H9          -6.9050   -15.1930     7.7520 hc         1 89Z       0.044950
     27 H10         -7.5280   -13.5620     7.5250 hc         1 89Z       0.044950
     28 H11         -8.2940   -15.9430     5.9570 hc         1 89Z       0.044950
     29 H12         -8.8590   -14.2890     5.7500 hc         1 89Z       0.044950
     30 H13        -14.8030   -14.1060     7.5110 ha         1 89Z       0.141000
     31 H14        -17.0570   -14.3510     8.5180 ha         1 89Z       0.144000
     32 O1         -18.6810   -14.9070    10.5020 o          1 89Z      -0.447100
     33 H4         -10.9330   -15.3170     6.4660 hc         1 89Z       0.046450
@<TRIPOS>BOND
     1     1     3 ar  
     2     1    14 ar  
     3     1    19 1   
     4     2    11 ar  
     5     2    14 ar  
     6     2    15 1   
     7     3    10 ar  
     8     3    18 1   
     9     4     6 1   
    10     4    18 1   
    11     4    20 1   
    12     4    21 1   
    13     5     6 1   
    14     5     9 1   
    15     5    22 1   
    16     5    33 1   
    17     6     7 1   
    18     6    23 1   
    19     7     8 1   
    20     7    24 1   
    21     7    25 1   
    22     8     9 1   
    23     8    26 1   
    24     8    27 1   
    25     9    28 1   
    26     9    29 1   
    27    10    11 ar  
    28    10    30 1   
    29    11    31 1   
    30    12    13 2   
    31    12    15 1   
    32    13    16 1   
    33    14    16 1   
    34    15    32 2   
    35    16    17 2   
@<TRIPOS>SUBSTRUCTURE
     1 89Z         1 TEMP              0 ****  ****    0 ROOT
