@<TRIPOS>MOLECULE
8A0
   56    59     1     0     0
SMALL
No Charge or Current Charge


@<TRIPOS>ATOM
      1 C5           2.3960     0.1800     0.9630 cc         1 8A0      -0.240300
      2 C6           3.2510     1.2750     0.9490 cc         1 8A0       0.472300
      3 C8           1.4790     0.3260    -2.7540 cg         1 8A0       0.314700
      4 C2           3.0050     1.5620    -1.3530 c2         1 8A0       0.405100
      5 N7           3.3610     2.4690    -2.3220 nv         1 8A0      -0.966000
      6 C16         -0.3460    -1.8090     0.1600 ca         1 8A0      -0.064000
      7 F48         -1.8820    -4.2220    -0.0540 f          1 8A0      -0.115000
      8 F46         -3.7340    -3.2110     0.4470 f          1 8A0      -0.115000
      9 F47         -2.2390    -3.5610     1.9860 f          1 8A0      -0.115000
     10 C17         -1.7370    -1.8720     0.3830 ca         1 8A0      -0.204300
     11 C18         -2.4910    -0.6810     0.3570 ca         1 8A0      -0.052000
     12 C19         -1.8790     0.5650     0.1020 cp         1 8A0      -0.038000
     13 C32         -2.6700     1.8320     0.0990 cp         1 8A0      -0.045000
     14 C43         -2.2810     2.8890     0.9570 ca         1 8A0      -0.097000
     15 C42         -2.9980     4.0950     0.9970 ca         1 8A0      -0.116000
     16 C41         -4.1180     4.2680     0.1720 ca         1 8A0      -0.101000
     17 C40         -4.5150     3.2380    -0.6960 ca         1 8A0      -0.114000
     18 C39         -3.8010     2.0230    -0.7470 ca         1 8A0      -0.052300
     19 C50         -4.2610     0.9600    -1.7420 c3         1 8A0      -0.052800
     20 C20         -0.4840     0.5960    -0.1150 ca         1 8A0      -0.056000
     21 C15          0.2990    -0.5790    -0.1130 ca         1 8A0      -0.068300
     22 C4           1.8360    -0.4430    -0.3220 c6         1 8A0       0.199800
     23 C13          2.6110    -1.8140    -0.5600 c3         1 8A0      -0.043700
     24 C34          2.1800    -2.6320    -1.8100 c3         1 8A0      -0.088600
     25 C14          4.1580    -1.6720    -0.5730 c3         1 8A0      -0.088600
     26 C3           2.1460     0.5280    -1.4990 ce         1 8A0      -0.257900
     27 N9           0.9530     0.2150    -3.7900 n1         1 8A0      -0.505000
     28 C10          2.2510    -0.1260     2.3010 cd         1 8A0      -0.088300
     29 N51          3.0610     0.8100     2.9750 na         1 8A0      -0.004200
     30 N11          3.7030     1.6990     2.1030 nd         1 8A0      -0.510800
     31 O1           3.6280     1.8930    -0.1970 os         1 8A0      -0.334400
     32 H1           2.7040     2.5880    -3.0880 hn         1 8A0       0.507500
     33 H2           3.7810     3.3290    -1.9810 hn         1 8A0       0.507500
     34 H3           1.6350    -2.1840     2.5480 hc         1 8A0       0.059700
     35 H4           1.6730    -1.2580     4.0530 hc         1 8A0       0.059700
     36 H5           0.3660    -0.9950     2.8900 hc         1 8A0       0.059700
     37 H6           0.2240    -2.7310     0.2240 ha         1 8A0       0.131000
     38 H7          -3.5600    -0.7070     0.5580 ha         1 8A0       0.133000
     39 H8          -1.4190     2.7620     1.6080 ha         1 8A0       0.113000
     40 H9          -2.6860     4.8920     1.6680 ha         1 8A0       0.114000
     41 H10         -4.6760     5.2010     0.2000 ha         1 8A0       0.113000
     42 H11         -5.3800     3.3890    -1.3380 ha         1 8A0       0.113000
     43 H12         -4.9090     0.2210    -1.2570 hc         1 8A0       0.047700
     44 H13         -4.8270     1.4020    -2.5700 hc         1 8A0       0.047700
     45 H14         -3.4110     0.4270    -2.1850 hc         1 8A0       0.047700
     46 H15         -0.0080     1.5590    -0.2860 ha         1 8A0       0.128000
     47 H16          2.4040    -2.4550     0.3040 hc         1 8A0       0.039700
     48 H17          2.6210    -2.2190    -2.7250 hc         1 8A0       0.037700
     49 H18          2.5250    -3.6700    -1.7220 hc         1 8A0       0.037700
     50 H19          1.0930    -2.6520    -1.9410 hc         1 8A0       0.037700
     51 H20          4.5340    -1.2650     0.3730 hc         1 8A0       0.037700
     52 H21          4.6330    -2.6510    -0.7140 hc         1 8A0       0.037700
     53 H22          4.4900    -1.0170    -1.3870 hc         1 8A0       0.037700
     54 H23          3.1950     0.8690     3.9840 hn         1 8A0       0.380000
     55 C12          1.4390    -1.1980     2.9840 c3         1 8A0      -0.037800
     56 C33         -2.4020    -3.2180     0.6890 c3         1 8A0       0.356300
@<TRIPOS>BOND
     1     1     2 1   
     2     1    22 1   
     3     1    28 2   
     4     2    30 2   
     5     2    31 1   
     6     3    26 1   
     7     3    27 3   
     8     4     5 1   
     9     4    26 2   
    10     4    31 1   
    11     5    32 1   
    12     5    33 1   
    13     6    10 ar  
    14     6    21 ar  
    15     6    37 1   
    16     7    56 1   
    17     8    56 1   
    18     9    56 1   
    19    10    11 ar  
    20    10    56 1   
    21    11    12 ar  
    22    11    38 1   
    23    12    13 1   
    24    12    20 ar  
    25    13    14 ar  
    26    13    18 ar  
    27    14    15 ar  
    28    14    39 1   
    29    15    16 ar  
    30    15    40 1   
    31    16    17 ar  
    32    16    41 1   
    33    17    18 ar  
    34    17    42 1   
    35    18    19 1   
    36    19    43 1   
    37    19    44 1   
    38    19    45 1   
    39    20    21 ar  
    40    20    46 1   
    41    21    22 1   
    42    22    23 1   
    43    22    26 1   
    44    23    24 1   
    45    23    25 1   
    46    23    47 1   
    47    24    48 1   
    48    24    49 1   
    49    24    50 1   
    50    25    51 1   
    51    25    52 1   
    52    25    53 1   
    53    28    29 1   
    54    28    55 1   
    55    29    30 1   
    56    29    54 1   
    57    34    55 1   
    58    35    55 1   
    59    36    55 1   
@<TRIPOS>SUBSTRUCTURE
     1 8A0         1 TEMP              0 ****  ****    0 ROOT
