@<TRIPOS>MOLECULE
8A0
   56    59     1     0     0
SMALL
bcc


@<TRIPOS>ATOM
      1 C5           2.3570     0.1670     0.9530 cc         1 8A0      -0.305600
      2 C6           3.2180     1.2580     0.9460 cc         1 8A0       0.537600
      3 C8           1.4030     0.4670    -2.6220 cg         1 8A0       0.225500
      4 C2           3.0100     1.5920    -1.3080 c2         1 8A0       0.405100
      5 N7           3.4010     2.3880    -2.3090 nv         1 8A0      -0.855600
      6 C16         -0.3260    -1.7960     0.1560 ca         1 8A0      -0.082000
      7 F48         -1.6850    -4.2010     0.2210 f          1 8A0      -0.236300
      8 F46         -3.6030    -3.2310     0.3210 f          1 8A0      -0.236300
      9 F47         -2.3630    -3.3450     2.0730 f          1 8A0      -0.236300
     10 C17         -1.6960    -1.8490     0.3900 ca         1 8A0      -0.204300
     11 C18         -2.4660    -0.6980     0.3660 ca         1 8A0      -0.070000
     12 C19         -1.8620     0.5280     0.1010 cp         1 8A0      -0.038000
     13 C32         -2.6490     1.7830     0.0930 cp         1 8A0      -0.045000
     14 C43         -2.2630     2.8170     0.9470 ca         1 8A0      -0.115000
     15 C42         -2.9560     4.0160     0.9830 ca         1 8A0      -0.134000
     16 C41         -4.0500     4.1950     0.1490 ca         1 8A0      -0.119000
     17 C40         -4.4320     3.1760    -0.7120 ca         1 8A0      -0.132000
     18 C39         -3.7480     1.9620    -0.7600 ca         1 8A0      -0.052300
     19 C50         -4.1900     0.9050    -1.7330 c3         1 8A0      -0.052800
     20 C20         -0.4920     0.5660    -0.1300 ca         1 8A0      -0.074000
     21 C15          0.2930    -0.5830    -0.1130 ca         1 8A0      -0.068300
     22 C4           1.8080    -0.4460    -0.3000 c6         1 8A0       0.199800
     23 C13          2.5180    -1.8040    -0.5810 c3         1 8A0      -0.043700
     24 C34          2.0930    -2.4560    -1.8960 c3         1 8A0      -0.088600
     25 C14          4.0370    -1.6730    -0.5540 c3         1 8A0      -0.088600
     26 C3           2.1040     0.5640    -1.4070 ce         1 8A0      -0.257900
     27 N9           0.8150     0.4190    -3.6190 n1         1 8A0      -0.415800
     28 C10          2.2310    -0.1280     2.2990 cd         1 8A0      -0.037600
     29 N51          2.9980     0.7730     2.9380 na         1 8A0      -0.004600
     30 N11          3.6150     1.6400     2.1310 nd         1 8A0      -0.510800
     31 O1           3.6430     1.9040    -0.1660 os         1 8A0      -0.334400
     32 H1           2.9800     2.3060    -3.2190 hn         1 8A0       0.452300
     33 H2           3.8430     3.2690    -2.1010 hn         1 8A0       0.452300
     34 H3           1.6920    -2.1660     2.6530 hc         1 8A0       0.059700
     35 H4           1.6530    -1.1450     4.0870 hc         1 8A0       0.059700
     36 H5           0.3800    -1.0180     2.8740 hc         1 8A0       0.059700
     37 H6           0.2540    -2.7070     0.1930 ha         1 8A0       0.149000
     38 H7          -3.5280    -0.7380     0.5630 ha         1 8A0       0.151000
     39 H8          -1.4120     2.6720     1.6020 ha         1 8A0       0.131000
     40 H9          -2.6430     4.8030     1.6570 ha         1 8A0       0.132000
     41 H10         -4.6010     5.1260     0.1600 ha         1 8A0       0.131000
     42 H11         -5.2760     3.3260    -1.3750 ha         1 8A0       0.131000
     43 H12         -4.8220     0.1530    -1.2560 hc         1 8A0       0.047700
     44 H13         -4.7750     1.3470    -2.5390 hc         1 8A0       0.047700
     45 H14         -3.3460     0.3800    -2.1780 hc         1 8A0       0.047700
     46 H15         -0.0260     1.5230    -0.3340 ha         1 8A0       0.146000
     47 H16          2.2510    -2.4790     0.2410 hc         1 8A0       0.039700
     48 H17          2.5320    -1.9410    -2.7510 hc         1 8A0       0.037700
     49 H18          2.4440    -3.4880    -1.9260 hc         1 8A0       0.037700
     50 H19          1.0140    -2.4760    -2.0420 hc         1 8A0       0.037700
     51 H20          4.4120    -1.3580     0.4180 hc         1 8A0       0.037700
     52 H21          4.4920    -2.6380    -0.7820 hc         1 8A0       0.037700
     53 H22          4.3910    -0.9640    -1.3050 hc         1 8A0       0.037700
     54 H23          3.1330     0.8470     3.9340 hn         1 8A0       0.329700
     55 C12          1.4500    -1.1670     3.0180 c3         1 8A0      -0.037800
     56 C33         -2.3350    -3.1560     0.7440 c3         1 8A0       0.720200
@<TRIPOS>BOND
     1     1     2 1   
     2     1    22 1   
     3     1    28 2   
     4     2    30 2   
     5     2    31 1   
     6     3    26 1   
     7     3    27 3   
     8     4     5 1   
     9     4    26 2   
    10     4    31 1   
    11     5    32 1   
    12     5    33 1   
    13     6    10 ar  
    14     6    21 ar  
    15     6    37 1   
    16     7    56 1   
    17     8    56 1   
    18     9    56 1   
    19    10    11 ar  
    20    10    56 1   
    21    11    12 ar  
    22    11    38 1   
    23    12    13 1   
    24    12    20 ar  
    25    13    14 ar  
    26    13    18 ar  
    27    14    15 ar  
    28    14    39 1   
    29    15    16 ar  
    30    15    40 1   
    31    16    17 ar  
    32    16    41 1   
    33    17    18 ar  
    34    17    42 1   
    35    18    19 1   
    36    19    43 1   
    37    19    44 1   
    38    19    45 1   
    39    20    21 ar  
    40    20    46 1   
    41    21    22 1   
    42    22    23 1   
    43    22    26 1   
    44    23    24 1   
    45    23    25 1   
    46    23    47 1   
    47    24    48 1   
    48    24    49 1   
    49    24    50 1   
    50    25    51 1   
    51    25    52 1   
    52    25    53 1   
    53    28    29 1   
    54    28    55 1   
    55    29    30 1   
    56    29    54 1   
    57    34    55 1   
    58    35    55 1   
    59    36    55 1   
@<TRIPOS>SUBSTRUCTURE
     1 8A0         1 TEMP              0 ****  ****    0 ROOT
