@<TRIPOS>MOLECULE
8A1
   15    14     1     0     0
SMALL
No Charge or Current Charge


@<TRIPOS>ATOM
      1 O           -1.5960    -1.2010    -0.6380 o          1 8A1      -0.717500
      2 C           -1.1970    -0.3000     0.0890 c          1 8A1       0.693000
      3 OXT         -1.8950     0.2260     0.9490 o          1 8A1      -0.717500
      4 CA           0.2600     0.2770    -0.1090 c3         1 8A1       0.035000
      5 CB           1.2650    -0.8360     0.3380 c3         1 8A1       0.160600
      6 O1           2.6390    -0.4300     0.1910 oh         1 8A1      -0.662000
      7 O2           0.4390     1.4670     0.7150 oh         1 8A1      -0.698000
      8 C3           0.4750     0.6910    -1.5920 c3         1 8A1      -0.067100
      9 H2           1.0610    -1.0980     1.3850 h1         1 8A1       0.018700
     10 H3           1.0840    -1.7390    -0.2610 h1         1 8A1       0.018700
     11 H4           3.1900    -1.1630     0.5420 ho         1 8A1       0.404000
     12 H5          -0.4020     1.5270     1.2340 ho         1 8A1       0.469000
     13 H6          -0.2940     1.4060    -1.9090 hc         1 8A1       0.021033
     14 H7           1.4550     1.1640    -1.7360 hc         1 8A1       0.021033
     15 H8           0.4210    -0.1810    -2.2550 hc         1 8A1       0.021033
@<TRIPOS>BOND
     1     1     2 1   
     2     2     3 1   
     3     2     4 1   
     4     4     5 1   
     5     4     7 1   
     6     4     8 1   
     7     5     6 1   
     8     5     9 1   
     9     5    10 1   
    10     6    11 1   
    11     7    12 1   
    12     8    13 1   
    13     8    14 1   
    14     8    15 1   
@<TRIPOS>SUBSTRUCTURE
     1 8A1         1 TEMP              0 ****  ****    0 ROOT
