@<TRIPOS>MOLECULE
8A1
   15    14     1     0     0
SMALL
bcc


@<TRIPOS>ATOM
      1 O           -1.5010    -1.2860    -0.5440 o          1 8A1      -0.822800
      2 C           -1.1720    -0.2730     0.0910 c          1 8A1       0.903600
      3 OXT         -1.8820     0.3910     0.8820 o          1 8A1      -0.822800
      4 CA           0.2730     0.2650    -0.0920 c3         1 8A1       0.011800
      5 CB           1.2460    -0.8350     0.3260 c3         1 8A1       0.137400
      6 O1           2.5700    -0.3590     0.2180 oh         1 8A1      -0.599800
      7 O2           0.4350     1.3880     0.7440 oh         1 8A1      -0.635800
      8 C3           0.4900     0.6700    -1.5500 c3         1 8A1      -0.067100
      9 H2           1.0170    -1.1370     1.3590 h1         1 8A1       0.018700
     10 H3           1.0820    -1.7130    -0.3090 h1         1 8A1       0.018700
     11 H4           3.1620    -1.0860     0.4290 ho         1 8A1       0.365000
     12 H5          -0.4460     1.4560     1.1600 ho         1 8A1       0.430000
     13 H6          -0.2380     1.4250    -1.8540 hc         1 8A1       0.021033
     14 H7           1.4860     1.0890    -1.7000 hc         1 8A1       0.021033
     15 H8           0.3820    -0.1860    -2.2160 hc         1 8A1       0.021033
@<TRIPOS>BOND
     1     1     2 1   
     2     2     3 1   
     3     2     4 1   
     4     4     5 1   
     5     4     7 1   
     6     4     8 1   
     7     5     6 1   
     8     5     9 1   
     9     5    10 1   
    10     6    11 1   
    11     7    12 1   
    12     8    13 1   
    13     8    14 1   
    14     8    15 1   
@<TRIPOS>SUBSTRUCTURE
     1 8A1         1 TEMP              0 ****  ****    0 ROOT
