@<TRIPOS>MOLECULE
8A2
   20    20     1     0     0
SMALL
No Charge or Current Charge


@<TRIPOS>ATOM
      1 C1          34.4650    49.8860   -10.9080 ca         1 8A2      -0.050900
      2 C3          34.8230    50.6550   -12.0290 ca         1 8A2      -0.099000
      3 C4          33.8460    51.0200   -12.9710 ca         1 8A2       0.159000
      4 C6          32.5020    50.6190   -12.8050 ca         1 8A2      -0.081300
      5 C7          31.4290    51.0120   -13.8170 c3         1 8A2      -0.020100
      6 C8          30.8420    52.4110   -13.5210 c3         1 8A2      -0.203400
      7 C9          29.7490    52.7830   -14.5250 c          1 8A2       0.573900
      8 C11         32.1500    49.8500   -11.6760 ca         1 8A2      -0.129000
      9 C12         33.1270    49.4860   -10.7340 ca         1 8A2       0.185000
     10 F5          34.2110    51.7640   -14.0400 f          1 8A2      -0.169000
     11 F13         32.7710    48.7480    -9.6580 f          1 8A2      -0.154000
     12 O10         29.9870    53.2660   -15.6260 o          1 8A2      -0.503100
     13 Br2         35.8080    49.3970    -9.6300 br         1 8A2      -0.048100
     14 H1          35.8530    50.9710   -12.1710 ha         1 8A2       0.152000
     15 H2          30.6190    50.2710   -13.8130 hc         1 8A2       0.060200
     16 H3          31.8420    50.9970   -14.8340 hc         1 8A2       0.060200
     17 H4          31.6450    53.1560   -13.5660 hc         1 8A2       0.074700
     18 H5          30.3960    52.3780   -12.5200 hc         1 8A2       0.074700
     19 H6          28.7050    52.5870   -14.1960 h4         1 8A2      -0.019800
     20 H7          31.1210    49.5340   -11.5240 ha         1 8A2       0.138000
@<TRIPOS>BOND
     1     1     2 ar  
     2     1     9 ar  
     3     1    13 1   
     4     2     3 ar  
     5     2    14 1   
     6     3     4 ar  
     7     3    10 1   
     8     4     5 1   
     9     4     8 ar  
    10     5     6 1   
    11     5    15 1   
    12     5    16 1   
    13     6     7 1   
    14     6    17 1   
    15     6    18 1   
    16     7    12 2   
    17     7    19 1   
    18     8     9 ar  
    19     8    20 1   
    20     9    11 1   
@<TRIPOS>SUBSTRUCTURE
     1 8A2         1 TEMP              0 ****  ****    0 ROOT
