@<TRIPOS>MOLECULE
8A2
   20    20     1     0     0
SMALL
bcc


@<TRIPOS>ATOM
      1 C1          34.4350    49.9120   -10.9190 ca         1 8A2      -0.050900
      2 C3          34.7870    50.6410   -12.0460 ca         1 8A2      -0.117000
      3 C4          33.8030    50.9680   -12.9560 ca         1 8A2       0.123900
      4 C6          32.4740    50.5990   -12.8050 ca         1 8A2      -0.081300
      5 C7          31.4270    50.9920   -13.8060 c3         1 8A2      -0.020100
      6 C8          30.9240    52.4220   -13.5700 c3         1 8A2      -0.203400
      7 C9          29.8070    52.7670   -14.5090 c          1 8A2       0.573900
      8 C11         32.1470    49.8730   -11.6660 ca         1 8A2      -0.147000
      9 C12         33.1140    49.5370   -10.7400 ca         1 8A2       0.149900
     10 F5          34.1550    51.6770   -14.0390 f          1 8A2      -0.133900
     11 F13         32.7670    48.8370    -9.6580 f          1 8A2      -0.118900
     12 O10         29.7230    53.7900   -15.1390 o          1 8A2      -0.503100
     13 BR2         35.7270    49.4320    -9.6490 br         1 8A2      -0.048100
     14 H1          35.8100    50.9500   -12.2180 ha         1 8A2       0.170000
     15 H2          30.5880    50.2980   -13.7300 hc         1 8A2       0.060200
     16 H3          31.8170    50.8980   -14.8200 hc         1 8A2       0.060200
     17 H4          31.7260    53.1560   -13.6570 hc         1 8A2       0.074700
     18 H5          30.5180    52.4890   -12.5540 hc         1 8A2       0.074700
     19 H6          29.0190    51.9930   -14.5820 h4         1 8A2      -0.019800
     20 H7          31.1230    49.5600   -11.4990 ha         1 8A2       0.156000
@<TRIPOS>BOND
     1     1     2 ar  
     2     1     9 ar  
     3     1    13 1   
     4     2     3 ar  
     5     2    14 1   
     6     3     4 ar  
     7     3    10 1   
     8     4     5 1   
     9     4     8 ar  
    10     5     6 1   
    11     5    15 1   
    12     5    16 1   
    13     6     7 1   
    14     6    17 1   
    15     6    18 1   
    16     7    12 2   
    17     7    19 1   
    18     8     9 ar  
    19     8    20 1   
    20     9    11 1   
@<TRIPOS>SUBSTRUCTURE
     1 8A2         1 TEMP              0 ****  ****    0 ROOT
