@<TRIPOS>MOLECULE
8A3
   67    70     1     0     0
SMALL
bcc


@<TRIPOS>ATOM
      1 F67         -7.7360    -1.6190     1.7840 f          1 8A3      -0.229633
      2 C56         -7.3320    -0.3620     1.5570 c3         1 8A3       0.663900
      3 F64         -8.0700     0.1040     0.5470 f          1 8A3      -0.229633
      4 F65         -7.6390     0.3570     2.6440 f          1 8A3      -0.229633
      5 C54         -5.8480    -0.2840     1.2710 c3         1 8A3       0.138800
      6 N51         -5.5090    -1.1200     0.1330 n3         1 8A3      -0.731500
      7 C55         -4.8870    -2.4050     0.4410 c3         1 8A3       0.181100
      8 S44         -5.0500    -0.3710    -1.2700 sy         1 8A3       1.310200
      9 O52         -5.0800    -1.3800    -2.3120 o          1 8A3      -0.593300
     10 O53         -5.8570     0.8290    -1.3920 o          1 8A3      -0.593300
     11 C41         -3.3660     0.1180    -1.0300 ca         1 8A3      -0.309500
     12 C40         -2.3440    -0.7600    -1.3690 ca         1 8A3      -0.033500
     13 C39         -1.0300    -0.3890    -1.1390 ca         1 8A3      -0.140000
     14 C42         -3.0830     1.3590    -0.4740 ca         1 8A3      -0.033500
     15 C43         -1.7650     1.7140    -0.2460 ca         1 8A3      -0.140000
     16 C32         -0.7210     0.8480    -0.5710 cp         1 8A3       0.026000
     17 C19          0.6850     1.2320    -0.3420 cp         1 8A3      -0.061000
     18 C18          1.0980     2.5540    -0.5160 ca         1 8A3      -0.062000
     19 C17          2.4260     2.8830    -0.3360 ca         1 8A3      -0.203300
     20 C33          2.9100     4.2860    -0.5340 c3         1 8A3       0.721200
     21 F49          1.9370     5.1250    -0.8970 f          1 8A3      -0.234300
     22 F48          3.4570     4.7810     0.5860 f          1 8A3      -0.234300
     23 F47          3.8580     4.3520    -1.4800 f          1 8A3      -0.234300
     24 C16          3.3630     1.9130     0.0210 ca         1 8A3      -0.071000
     25 C20          1.6250     0.2810     0.0290 ca         1 8A3      -0.068000
     26 C15          2.9700     0.5990     0.2120 ca         1 8A3      -0.067300
     27 C4           3.9420    -0.5450     0.5220 c6         1 8A3       0.199800
     28 C13          5.3780    -0.0520     0.8630 c3         1 8A3      -0.044700
     29 C34          5.4730     0.7260     2.1760 c3         1 8A3      -0.089100
     30 C14          6.3890    -1.1920     0.8920 c3         1 8A3      -0.089100
     31 C3           3.3740    -1.4090     1.6470 ce         1 8A3      -0.257900
     32 C8           2.8560    -0.7760     2.7900 cg         1 8A3       0.221500
     33 N9           2.3990    -0.2670     3.7260 n1         1 8A3      -0.412800
     34 C2           3.2990    -2.7800     1.6210 c2         1 8A3       0.402100
     35 N7           2.9610    -3.5660     2.6500 nv         1 8A3      -0.849600
     36 C5           3.9790    -1.4360    -0.6820 cc         1 8A3      -0.311600
     37 C10          4.1900    -1.2140    -2.0320 cd         1 8A3      -0.035600
     38 C12          4.4360     0.0290    -2.8050 c3         1 8A3      -0.038800
     39 N63          4.1410    -2.4290    -2.6080 na         1 8A3      -0.004600
     40 N11          3.9160    -3.4320    -1.7540 nd         1 8A3      -0.507800
     41 C6           3.8250    -2.8150    -0.6060 cc         1 8A3       0.536600
     42 O1           3.5940    -3.5090     0.5330 os         1 8A3      -0.332400
     43 H1          -5.5860     0.7620     1.1160 h1         1 8A3       0.084700
     44 H2          -5.2980    -0.6120     2.1550 h1         1 8A3       0.084700
     45 H3          -3.8560    -2.2940     0.7870 h1         1 8A3       0.057033
     46 H4          -5.4620    -2.8880     1.2270 h1         1 8A3       0.057033
     47 H5          -4.9100    -3.0580    -0.4250 h1         1 8A3       0.057033
     48 H6          -2.5560    -1.7180    -1.8230 ha         1 8A3       0.154500
     49 H7          -0.2410    -1.0690    -1.4340 ha         1 8A3       0.142000
     50 H8          -3.8720     2.0550    -0.2250 ha         1 8A3       0.154500
     51 H9          -1.5570     2.6760     0.2030 ha         1 8A3       0.142000
     52 H10          0.3810     3.3050    -0.8210 ha         1 8A3       0.153000
     53 H11          4.3990     2.2020     0.1340 ha         1 8A3       0.152000
     54 H12          1.3100    -0.7430     0.1920 ha         1 8A3       0.144000
     55 H13          5.6810     0.6110     0.0440 hc         1 8A3       0.039700
     56 H14          5.4260     0.0550     3.0350 hc         1 8A3       0.038367
     57 H15          6.4340     1.2400     2.2230 hc         1 8A3       0.038367
     58 H16          4.6960     1.4790     2.3060 hc         1 8A3       0.038367
     59 H17          7.3800    -0.7960     1.1200 hc         1 8A3       0.038367
     60 H18          6.1490    -1.9240     1.6670 hc         1 8A3       0.038367
     61 H19          6.4600    -1.7140    -0.0610 hc         1 8A3       0.038367
     62 H20          2.6690    -3.1540     3.5210 hn         1 8A3       0.450800
     63 H21          2.6240    -4.4970     2.4660 hn         1 8A3       0.450800
     64 H22          5.3880     0.4840    -2.5280 hc         1 8A3       0.060700
     65 H23          4.4610    -0.1670    -3.8760 hc         1 8A3       0.060700
     66 H24          3.6550     0.7650    -2.6150 hc         1 8A3       0.060700
     67 H25          4.2550    -2.6340    -3.5890 hn         1 8A3       0.331700
@<TRIPOS>BOND
     1     1     2 1   
     2     2     3 1   
     3     2     4 1   
     4     2     5 1   
     5     5     6 1   
     6     5    43 1   
     7     5    44 1   
     8     6     7 1   
     9     6     8 1   
    10     7    45 1   
    11     7    46 1   
    12     7    47 1   
    13     8     9 2   
    14     8    10 2   
    15     8    11 1   
    16    11    12 ar  
    17    11    14 ar  
    18    12    13 ar  
    19    12    48 1   
    20    13    16 ar  
    21    13    49 1   
    22    14    15 ar  
    23    14    50 1   
    24    15    16 ar  
    25    15    51 1   
    26    16    17 1   
    27    17    18 ar  
    28    17    25 ar  
    29    18    19 ar  
    30    18    52 1   
    31    19    20 1   
    32    19    24 ar  
    33    20    21 1   
    34    20    22 1   
    35    20    23 1   
    36    24    26 ar  
    37    24    53 1   
    38    25    26 ar  
    39    25    54 1   
    40    26    27 1   
    41    27    28 1   
    42    27    31 1   
    43    27    36 1   
    44    28    29 1   
    45    28    30 1   
    46    28    55 1   
    47    29    56 1   
    48    29    57 1   
    49    29    58 1   
    50    30    59 1   
    51    30    60 1   
    52    30    61 1   
    53    31    32 1   
    54    31    34 2   
    55    32    33 3   
    56    34    35 1   
    57    34    42 1   
    58    35    62 1   
    59    35    63 1   
    60    36    37 2   
    61    36    41 1   
    62    37    38 1   
    63    37    39 1   
    64    38    64 1   
    65    38    65 1   
    66    38    66 1   
    67    39    40 1   
    68    39    67 1   
    69    40    41 2   
    70    41    42 1   
@<TRIPOS>SUBSTRUCTURE
     1 8A3         1 TEMP              0 ****  ****    0 ROOT
