@<TRIPOS>MOLECULE
8A3
   67    70     1     0     0
SMALL
No Charge or Current Charge


@<TRIPOS>ATOM
      1 F67         -6.3550    -2.3340     2.6510 f          1 8A3      -0.108333
      2 C56         -5.2920    -1.5380     2.3880 c3         1 8A3       0.300000
      3 F64         -5.5810    -0.2910     2.8300 f          1 8A3      -0.108333
      4 F65         -4.2500    -2.0000     3.1160 f          1 8A3      -0.108333
      5 C54         -4.9380    -1.5390     0.8720 c3         1 8A3       0.138800
      6 N51         -5.7830    -0.6920    -0.0350 n3         1 8A3      -0.731500
      7 C55         -7.2240    -1.0330    -0.0190 c3         1 8A3       0.181100
      8 S44         -5.1710    -0.5240    -1.6200 sy         1 8A3       1.168600
      9 O52         -5.2060    -1.8520    -2.2430 o          1 8A3      -0.522500
     10 O53         -5.8710     0.6290    -2.1970 o          1 8A3      -0.522500
     11 C41         -3.4650    -0.0170    -1.3320 ca         1 8A3      -0.309500
     12 C40         -2.3980    -0.8940    -1.6120 ca         1 8A3      -0.015500
     13 C39         -1.0750    -0.4900    -1.3660 ca         1 8A3      -0.122000
     14 C42         -3.1970     1.2610    -0.8070 ca         1 8A3      -0.015500
     15 C43         -1.8710     1.6580    -0.5660 ca         1 8A3      -0.122000
     16 C32         -0.7830     0.7930    -0.8390 cp         1 8A3       0.026000
     17 C19          0.6280     1.2190    -0.5760 cp         1 8A3      -0.061000
     18 C18          1.0420     2.5500    -0.8130 ca         1 8A3      -0.044000
     19 C17          2.3740     2.9530    -0.5840 ca         1 8A3      -0.203300
     20 C33          2.8240     4.3880    -0.8780 c3         1 8A3       0.357300
     21 F49          1.7960     5.2680    -0.8910 f          1 8A3      -0.113000
     22 F48          3.7060     4.8410     0.0430 f          1 8A3      -0.113000
     23 F47          3.4320     4.4730    -2.0820 f          1 8A3      -0.113000
     24 C16          3.3070     2.0080    -0.1110 ca         1 8A3      -0.053000
     25 C20          1.5870     0.2980    -0.0940 ca         1 8A3      -0.050000
     26 C15          2.9230     0.6740     0.1620 ca         1 8A3      -0.067300
     27 C4           3.9150    -0.4180     0.6540 c6         1 8A3       0.199800
     28 C13          5.3110     0.1220     1.1890 c3         1 8A3      -0.044700
     29 C34          5.2350     1.0780     2.4130 c3         1 8A3      -0.089100
     30 C14          6.3430    -0.9980     1.5000 c3         1 8A3      -0.089100
     31 C3           3.2270    -1.3170     1.8130 ce         1 8A3      -0.257900
     32 C8           2.5910    -0.6970     2.9720 cg         1 8A3       0.310700
     33 N9           2.0460    -0.2330     3.8930 n1         1 8A3      -0.502000
     34 C2           3.1920    -2.6840     1.7380 c2         1 8A3       0.402100
     35 N7           2.6500    -3.5490     2.6590 nv         1 8A3      -0.960000
     36 C5           4.1830    -1.3540    -0.5100 cc         1 8A3      -0.246300
     37 C10          4.5750    -1.1050    -1.7970 cd         1 8A3      -0.086300
     38 C12          4.8490     0.1910    -2.5170 c3         1 8A3      -0.038800
     39 N63          4.6890    -2.3810    -2.3900 na         1 8A3      -0.004200
     40 N11          4.3690    -3.4220    -1.5110 nd         1 8A3      -0.507800
     41 C6           4.0680    -2.7410    -0.4320 cc         1 8A3       0.471300
     42 O1           3.6720    -3.3970     0.6920 os         1 8A3      -0.332400
     43 H1          -3.8900    -1.2190     0.8190 h1         1 8A3       0.084700
     44 H2          -4.9540    -2.5820     0.5270 h1         1 8A3       0.084700
     45 H3          -7.3940    -2.0560    -0.3800 h1         1 8A3       0.057033
     46 H4          -7.6420    -0.9510     0.9920 h1         1 8A3       0.057033
     47 H5          -7.8010    -0.3470    -0.6550 h1         1 8A3       0.057033
     48 H6          -2.5850    -1.8870    -2.0180 ha         1 8A3       0.136500
     49 H7          -0.2660    -1.1760    -1.6010 ha         1 8A3       0.124000
     50 H8          -4.0130     1.9450    -0.5770 ha         1 8A3       0.136500
     51 H9          -1.6880     2.6440    -0.1460 ha         1 8A3       0.124000
     52 H10          0.3220     3.2640    -1.2060 ha         1 8A3       0.135000
     53 H11          4.3360     2.3270     0.0240 ha         1 8A3       0.134000
     54 H12          1.2820    -0.7290     0.0880 ha         1 8A3       0.126000
     55 H13          5.7700     0.7010     0.3810 hc         1 8A3       0.039700
     56 H14          5.0760     0.5190     3.3420 hc         1 8A3       0.038367
     57 H15          6.1760     1.6310     2.5210 hc         1 8A3       0.038367
     58 H16          4.4270     1.8110     2.3180 hc         1 8A3       0.038367
     59 H17          7.2890    -0.5640     1.8480 hc         1 8A3       0.038367
     60 H18          5.9740    -1.6720     2.2820 hc         1 8A3       0.038367
     61 H19          6.5700    -1.5940     0.6090 hc         1 8A3       0.038367
     62 H20          1.9370    -3.1630     3.2720 hn         1 8A3       0.506000
     63 H21          2.4600    -4.4880     2.3190 hn         1 8A3       0.506000
     64 H22          5.5480     0.8210    -1.9550 hc         1 8A3       0.060700
     65 H23          5.2890     0.0150    -3.5060 hc         1 8A3       0.060700
     66 H24          3.9240     0.7600    -2.6630 hc         1 8A3       0.060700
     67 H25          4.9710    -2.5680    -3.3520 hn         1 8A3       0.382000
@<TRIPOS>BOND
     1     1     2 1   
     2     2     3 1   
     3     2     4 1   
     4     2     5 1   
     5     5     6 1   
     6     5    43 1   
     7     5    44 1   
     8     6     7 1   
     9     6     8 1   
    10     7    45 1   
    11     7    46 1   
    12     7    47 1   
    13     8     9 2   
    14     8    10 2   
    15     8    11 1   
    16    11    12 ar  
    17    11    14 ar  
    18    12    13 ar  
    19    12    48 1   
    20    13    16 ar  
    21    13    49 1   
    22    14    15 ar  
    23    14    50 1   
    24    15    16 ar  
    25    15    51 1   
    26    16    17 1   
    27    17    18 ar  
    28    17    25 ar  
    29    18    19 ar  
    30    18    52 1   
    31    19    20 1   
    32    19    24 ar  
    33    20    21 1   
    34    20    22 1   
    35    20    23 1   
    36    24    26 ar  
    37    24    53 1   
    38    25    26 ar  
    39    25    54 1   
    40    26    27 1   
    41    27    28 1   
    42    27    31 1   
    43    27    36 1   
    44    28    29 1   
    45    28    30 1   
    46    28    55 1   
    47    29    56 1   
    48    29    57 1   
    49    29    58 1   
    50    30    59 1   
    51    30    60 1   
    52    30    61 1   
    53    31    32 1   
    54    31    34 2   
    55    32    33 3   
    56    34    35 1   
    57    34    42 1   
    58    35    62 1   
    59    35    63 1   
    60    36    37 2   
    61    36    41 1   
    62    37    38 1   
    63    37    39 1   
    64    38    64 1   
    65    38    65 1   
    66    38    66 1   
    67    39    40 1   
    68    39    67 1   
    69    40    41 2   
    70    41    42 1   
@<TRIPOS>SUBSTRUCTURE
     1 8A3         1 TEMP              0 ****  ****    0 ROOT
