@<TRIPOS>MOLECULE
8A4
   65    70     1     0     0
SMALL
No Charge or Current Charge


@<TRIPOS>ATOM
      1 C7         -19.9310   -34.1110    15.2060 ca         1 8A4      -0.072000
      2 C16        -14.8930   -33.9120     8.9900 ca         1 8A4      -0.088000
      3 C20        -13.7720   -33.4660    11.0990 ca         1 8A4      -0.088000
      4 C35        -22.0320   -31.3260    15.1330 ca         1 8A4      -0.087500
      5 C40        -23.2570   -33.2730    15.9230 ca         1 8A4      -0.087500
      6 C6         -18.6040   -34.5370    15.3650 ca         1 8A4      -0.104000
      7 C17        -14.3600   -32.7260     8.4560 ca         1 8A4      -0.113500
      8 C19        -13.2380   -32.2800    10.5650 ca         1 8A4      -0.113500
      9 C36        -22.4660   -30.6000    16.2560 ca         1 8A4      -0.105500
     10 C39        -23.6890   -32.5430    17.0440 ca         1 8A4      -0.105500
     11 C23        -13.0850   -28.7480     7.8660 cc         1 8A4      -0.229000
     12 C9         -19.6420   -34.1680    12.8000 ca         1 8A4      -0.032000
     13 C24        -11.7620   -29.1560     8.1250 cc         1 8A4       0.246900
     14 C29        -22.4710   -35.9820    13.3780 cc         1 8A4       0.262900
     15 C22        -13.9060   -29.7630     8.2590 cd         1 8A4      -0.153000
     16 C31        -24.5440   -35.9540    12.8120 cd         1 8A4       0.399400
     17 C10        -18.3040   -34.6000    12.9610 ca         1 8A4      -0.112000
     18 C15        -14.6070   -34.2870    10.3170 ca         1 8A4      -0.079300
     19 C34        -22.4340   -32.6690    14.9410 ca         1 8A4      -0.132300
     20 C8         -20.4670   -33.9060    13.9170 ca         1 8A4      -0.094300
     21 C13        -16.1400   -35.2870    12.0750 ca         1 8A4      -0.131300
     22 C5         -17.7780   -34.7820    14.2580 ca         1 8A4       0.321000
     23 C18        -13.5320   -31.9000     9.2420 ca         1 8A4       0.019800
     24 C37        -23.2970   -31.2070    17.2080 ca         1 8A4       0.130000
     25 C11        -17.4660   -34.8600    11.8530 ca         1 8A4       0.195000
     26 C28        -22.8110   -34.6540    13.3780 cd         1 8A4      -0.229300
     27 C3         -15.7110   -35.4340    13.4100 ca         1 8A4       0.605300
     28 C33        -25.0480   -33.4670    12.8790 c3         1 8A4       0.053900
     29 C1         -13.9090   -35.9980    14.9900 c3         1 8A4       0.158900
     30 C14        -15.1880   -35.5710    10.9030 c3         1 8A4       0.028200
     31 C26        -21.9330   -33.4620    13.7140 c3         1 8A4       0.368900
     32 N30        -23.5270   -36.7750    13.0310 nc         1 8A4      -0.672000
     33 N25        -11.6650   -30.3590     8.6580 nd         1 8A4      -0.516800
     34 N4         -16.5120   -35.1900    14.4670 nb         1 8A4      -0.757000
     35 N21        -13.0000   -30.7200     8.7170 na         1 8A4       0.212000
     36 N32        -24.1600   -34.6360    13.0170 na         1 8A4      -0.173500
     37 O27        -21.9820   -32.5870    12.5900 oh         1 8A4      -0.655000
     38 O2         -14.4170   -35.8450    13.6490 os         1 8A4      -0.469300
     39 Cl38       -23.8370   -30.2980    18.6140 cl         1 8A4      -0.204000
     40 Cl12       -18.0660   -34.6540    10.1980 cl         1 8A4      -0.185000
     41 H1         -20.5330   -33.9490    16.0960 ha         1 8A4       0.124000
     42 H3         -13.5330   -33.7450    12.1230 ha         1 8A4       0.120500
     43 H4         -21.3760   -30.8400    14.4140 ha         1 8A4       0.132000
     44 H5         -23.5650   -34.3130    15.8290 ha         1 8A4       0.132000
     45 H6         -18.2070   -34.6840    16.3660 ha         1 8A4       0.134000
     46 H7         -14.5880   -32.4500     7.4280 ha         1 8A4       0.131000
     47 H8         -12.5950   -31.6540    11.1800 ha         1 8A4       0.131000
     48 H9         -22.1540   -29.5670    16.3910 ha         1 8A4       0.134500
     49 H10        -24.3250   -33.0160    17.7880 ha         1 8A4       0.134500
     50 H11        -13.3730   -27.7930     7.4390 ha         1 8A4       0.146000
     51 H12        -20.0600   -34.0370    11.8050 ha         1 8A4       0.147000
     52 H13        -10.8560   -28.5930     7.9410 h4         1 8A4       0.038100
     53 H14        -21.5130   -36.4300    13.6110 h4         1 8A4       0.046100
     54 H15        -14.9830   -29.8840     8.2550 h4         1 8A4       0.155000
     55 H16        -25.5520   -36.2260    12.5180 h5         1 8A4       0.054100
     56 H17        -26.0950   -33.7910    12.9320 h1         1 8A4       0.056033
     57 H18        -24.8630   -32.7490    13.6860 h1         1 8A4       0.056033
     58 H19        -24.8750   -32.9840    11.9090 h1         1 8A4       0.056033
     59 H20        -12.8630   -36.3290    14.9660 h1         1 8A4       0.051367
     60 H21        -13.9510   -35.0460    15.5360 h1         1 8A4       0.051367
     61 H22        -14.4880   -36.7450    15.5470 h1         1 8A4       0.051367
     62 H23        -15.7080   -36.1470    10.1280 hc         1 8A4       0.070700
     63 H24        -14.3660   -36.2270    11.2100 hc         1 8A4       0.070700
     64 H25        -22.9180   -32.3210    12.5110 ho         1 8A4       0.447000
     65 H2         -15.5310   -34.5370     8.3690 ha         1 8A4       0.120500
@<TRIPOS>BOND
     1     1     6 ar  
     2     1    20 ar  
     3     1    41 1   
     4     2     7 ar  
     5     2    18 ar  
     6     2    65 1   
     7     3     8 ar  
     8     3    18 ar  
     9     3    42 1   
    10     4     9 ar  
    11     4    19 ar  
    12     4    43 1   
    13     5    10 ar  
    14     5    19 ar  
    15     5    44 1   
    16     6    22 ar  
    17     6    45 1   
    18     7    23 ar  
    19     7    46 1   
    20     8    23 ar  
    21     8    47 1   
    22     9    24 ar  
    23     9    48 1   
    24    10    24 ar  
    25    10    49 1   
    26    11    13 1   
    27    11    15 2   
    28    11    50 1   
    29    12    17 ar  
    30    12    20 ar  
    31    12    51 1   
    32    13    33 2   
    33    13    52 1   
    34    14    26 2   
    35    14    32 1   
    36    14    53 1   
    37    15    35 1   
    38    15    54 1   
    39    16    32 2   
    40    16    36 1   
    41    16    55 1   
    42    17    22 ar  
    43    17    25 ar  
    44    18    30 1   
    45    19    31 1   
    46    20    31 1   
    47    21    25 ar  
    48    21    27 ar  
    49    21    30 1   
    50    22    34 ar  
    51    23    35 1   
    52    24    39 1   
    53    25    40 1   
    54    26    31 1   
    55    26    36 1   
    56    27    34 ar  
    57    27    38 1   
    58    28    36 1   
    59    28    56 1   
    60    28    57 1   
    61    28    58 1   
    62    29    38 1   
    63    29    59 1   
    64    29    60 1   
    65    29    61 1   
    66    30    62 1   
    67    30    63 1   
    68    31    37 1   
    69    33    35 1   
    70    37    64 1   
@<TRIPOS>SUBSTRUCTURE
     1 8A4         1 TEMP              0 ****  ****    0 ROOT
