@<TRIPOS>MOLECULE
8A4
   65    70     1     0     0
SMALL
abcg2


@<TRIPOS>ATOM
      1 C7         -20.0490   -34.4800    15.0780 ca         1 8A4      -0.072000
      2 C16        -14.6910   -33.7500     8.9180 ca         1 8A4      -0.088000
      3 C20        -14.1210   -33.2020    11.1760 ca         1 8A4      -0.088000
      4 C35        -21.8730   -31.3680    14.6280 ca         1 8A4      -0.087500
      5 C40        -23.0720   -33.0020    15.9120 ca         1 8A4      -0.087500
      6 C6         -18.7530   -34.9110    15.2130 ca         1 8A4      -0.104000
      7 C17        -14.1340   -32.5560     8.4780 ca         1 8A4      -0.113500
      8 C19        -13.5750   -31.9980    10.7550 ca         1 8A4      -0.113500
      9 C36        -22.1180   -30.4090    15.6000 ca         1 8A4      -0.105500
     10 C39        -23.3250   -32.0540    16.8980 ca         1 8A4      -0.105500
     11 C23        -12.5630   -28.6070     7.8460 cc         1 8A4      -0.229000
     12 C9         -19.7730   -34.2580    12.7010 ca         1 8A4      -0.032000
     13 C24        -11.7870   -28.7110     9.0180 cc         1 8A4       0.246900
     14 C29        -22.6160   -36.2360    14.0280 cc         1 8A4       0.262900
     15 C22        -13.3490   -29.7360     7.8480 cd         1 8A4      -0.153000
     16 C31        -24.7340   -36.1780    13.7270 cd         1 8A4       0.399400
     17 C10        -18.4370   -34.6930    12.8110 ca         1 8A4      -0.112000
     18 C15        -14.6900   -34.0950    10.2670 ca         1 8A4      -0.079300
     19 C34        -22.3540   -32.6710    14.7670 ca         1 8A4      -0.132300
     20 C8         -20.5750   -34.1470    13.8120 ca         1 8A4      -0.094300
     21 C13        -16.2540   -35.2620    11.8680 ca         1 8A4      -0.131300
     22 C5         -17.9110   -35.0270    14.0880 ca         1 8A4       0.321000
     23 C18        -13.5810   -31.6730     9.4000 ca         1 8A4       0.019800
     24 C37        -22.8470   -30.7640    16.7280 ca         1 8A4       0.130000
     25 C11        -17.5430   -34.8310    11.7110 ca         1 8A4       0.195000
     26 C28        -22.9190   -34.9250    13.7590 cd         1 8A4      -0.229300
     27 C3         -15.8570   -35.5510    13.2160 ca         1 8A4       0.605300
     28 C33        -25.1390   -33.7810    13.1930 c3         1 8A4       0.053900
     29 C1         -14.1150   -36.2500    14.6840 c3         1 8A4       0.158900
     30 C14        -15.2830   -35.4120    10.7260 c3         1 8A4       0.028200
     31 C26        -22.0350   -33.7030    13.6790 c3         1 8A4       0.368900
     32 N30        -23.7530   -37.0110    14.0090 nc         1 8A4      -0.672000
     33 N25        -12.0690   -29.8190     9.6940 nd         1 8A4      -0.516800
     34 N4         -16.6260   -35.4470    14.2620 nb         1 8A4      -0.757000
     35 N21        -13.0290   -30.4420     8.9670 na         1 8A4       0.212000
     36 N32        -24.2920   -34.9040    13.5690 na         1 8A4      -0.173500
     37 O27        -22.1660   -33.0950    12.3810 oh         1 8A4      -0.655000
     38 O2         -14.5800   -35.9500    13.3600 os         1 8A4      -0.469300
     39 CL38       -23.1640   -29.5590    17.9580 cl         1 8A4      -0.204000
     40 CL12       -18.1170   -34.4330    10.1130 cl         1 8A4      -0.185000
     41 H1         -20.6730   -34.3950    15.9570 ha         1 8A4       0.124000
     42 H3         -14.1090   -33.4410    12.2320 ha         1 8A4       0.120500
     43 H4         -21.2990   -31.0970    13.7520 ha         1 8A4       0.132000
     44 H5         -23.4450   -34.0080    16.0470 ha         1 8A4       0.132000
     45 H6         -18.3490   -35.1640    16.1840 ha         1 8A4       0.134000
     46 H7         -14.1270   -32.3230     7.4220 ha         1 8A4       0.131000
     47 H8         -13.1480   -31.3090    11.4690 ha         1 8A4       0.131000
     48 H9         -21.7460   -29.4000    15.4840 ha         1 8A4       0.134500
     49 H10        -23.8880   -32.3180    17.7820 ha         1 8A4       0.134500
     50 H11        -12.5570   -27.8200     7.1120 ha         1 8A4       0.146000
     51 H12        -20.1670   -34.0080    11.7290 ha         1 8A4       0.147000
     52 H13        -11.0360   -28.0320     9.3910 h4         1 8A4       0.038100
     53 H14        -21.6470   -36.6560    14.2420 h4         1 8A4       0.046100
     54 H15        -14.1100   -30.0700     7.1650 h4         1 8A4       0.155000
     55 H16        -25.7770   -36.4320    13.6210 h5         1 8A4       0.054100
     56 H17        -26.1770   -34.0850    13.3040 h1         1 8A4       0.056033
     57 H18        -24.9530   -32.9270    13.8420 h1         1 8A4       0.056033
     58 H19        -24.9620   -33.4970    12.1550 h1         1 8A4       0.056033
     59 H20        -13.0760   -36.5450    14.5610 h1         1 8A4       0.051367
     60 H21        -14.1900   -35.3720    15.3240 h1         1 8A4       0.051367
     61 H22        -14.6940   -37.0650    15.1170 h1         1 8A4       0.051367
     62 H23        -15.7900   -35.8830     9.8840 hc         1 8A4       0.070700
     63 H24        -14.4820   -36.0820    11.0350 hc         1 8A4       0.070700
     64 H25        -22.9180   -32.4910    12.3910 ho         1 8A4       0.447000
     65 H2         -15.1280   -34.4270     8.1940 ha         1 8A4       0.120500
@<TRIPOS>BOND
     1     1     6 ar  
     2     1    20 ar  
     3     1    41 1   
     4     2     7 ar  
     5     2    18 ar  
     6     2    65 1   
     7     3     8 ar  
     8     3    18 ar  
     9     3    42 1   
    10     4     9 ar  
    11     4    19 ar  
    12     4    43 1   
    13     5    10 ar  
    14     5    19 ar  
    15     5    44 1   
    16     6    22 ar  
    17     6    45 1   
    18     7    23 ar  
    19     7    46 1   
    20     8    23 ar  
    21     8    47 1   
    22     9    24 ar  
    23     9    48 1   
    24    10    24 ar  
    25    10    49 1   
    26    11    13 1   
    27    11    15 2   
    28    11    50 1   
    29    12    17 ar  
    30    12    20 ar  
    31    12    51 1   
    32    13    33 2   
    33    13    52 1   
    34    14    26 2   
    35    14    32 1   
    36    14    53 1   
    37    15    35 1   
    38    15    54 1   
    39    16    32 2   
    40    16    36 1   
    41    16    55 1   
    42    17    22 ar  
    43    17    25 ar  
    44    18    30 1   
    45    19    31 1   
    46    20    31 1   
    47    21    25 ar  
    48    21    27 ar  
    49    21    30 1   
    50    22    34 ar  
    51    23    35 1   
    52    24    39 1   
    53    25    40 1   
    54    26    31 1   
    55    26    36 1   
    56    27    34 ar  
    57    27    38 1   
    58    28    36 1   
    59    28    56 1   
    60    28    57 1   
    61    28    58 1   
    62    29    38 1   
    63    29    59 1   
    64    29    60 1   
    65    29    61 1   
    66    30    62 1   
    67    30    63 1   
    68    31    37 1   
    69    33    35 1   
    70    37    64 1   
@<TRIPOS>SUBSTRUCTURE
     1 8A4         1 TEMP              0 ****  ****    0 ROOT
