@<TRIPOS>MOLECULE
8A5
   36    37     1     0     0
SMALL
No Charge or Current Charge


@<TRIPOS>ATOM
      1 C10          4.1580    24.1820     6.1590 c6         1 8A5       0.153600
      2 C13          3.8670    21.8010     4.5440 c6         1 8A5       0.123800
      3 C15          9.8370    22.2460     5.8640 ca         1 8A5       0.107100
      4 C17         10.2630    21.2910     8.1090 c3         1 8A5       0.146900
      5 C01         12.1710    24.3270     3.7900 c3         1 8A5       0.145900
      6 C03         10.3180    23.0130     4.7760 ca         1 8A5       0.113100
      7 C04          9.4880    23.2280     3.6520 ca         1 8A5      -0.174000
      8 C05          8.1940    22.6840     3.6160 ca         1 8A5      -0.084000
      9 C06          7.7090    21.9200     4.6920 ca         1 8A5      -0.088300
     10 C07          6.2990    21.3370     4.6390 c3         1 8A5       0.217100
     11 N08          5.2350    22.3610     4.7700 n3         1 8A5      -0.711600
     12 C09          5.2900    23.1150     6.0640 c6         1 8A5       0.123800
     13 O11          2.8650    23.5640     5.9510 os         1 8A5      -0.450000
     14 C12          2.7660    22.8970     4.6700 c6         1 8A5       0.153600
     15 C14          8.5320    21.7020     5.8150 ca         1 8A5      -0.166000
     16 H1           4.3140    24.9620     5.4000 h1         1 8A5       0.050200
     17 H2           4.1750    24.6580     7.1490 h1         1 8A5       0.050200
     18 H3           3.6540    21.0050     5.2730 h1         1 8A5       0.042450
     19 H4           3.8000    21.3480     3.5440 h1         1 8A5       0.042450
     20 H5          11.0720    21.2660     8.8500 h1         1 8A5       0.038700
     21 H6           9.3820    21.7410     8.5840 h1         1 8A5       0.038700
     22 H7          10.0250    20.2560     7.8310 h1         1 8A5       0.038700
     23 H8          13.1900    24.6350     4.0550 h1         1 8A5       0.038700
     24 H9          12.2220    23.7520     2.8560 h1         1 8A5       0.038700
     25 H10         11.5770    25.2330     3.6160 h1         1 8A5       0.038700
     26 H11          9.8270    23.8130     2.8020 ha         1 8A5       0.119000
     27 H12          7.5590    22.8580     2.7490 ha         1 8A5       0.124000
     28 H13          6.1900    20.5810     5.4290 h1         1 8A5       0.037200
     29 H14          6.1880    20.8110     3.6810 h1         1 8A5       0.037200
     30 H16          5.1940    22.4230     6.9140 h1         1 8A5       0.042450
     31 H17          6.2570    23.6270     6.1730 h1         1 8A5       0.042450
     32 H18          2.8790    23.6370     3.8650 h1         1 8A5       0.050200
     33 H19          1.7700    22.4400     4.5770 h1         1 8A5       0.050200
     34 H20          8.1400    21.1130     6.6390 ha         1 8A5       0.116000
     35 O16         10.6670    22.0500     6.9570 os         1 8A5      -0.322100
     36 O02         11.6000    23.5360     4.8470 os         1 8A5      -0.322100
@<TRIPOS>BOND
     1     1    12 1   
     2     1    13 1   
     3     1    16 1   
     4     1    17 1   
     5     2    11 1   
     6     2    14 1   
     7     2    18 1   
     8     2    19 1   
     9     3     6 ar  
    10     3    15 ar  
    11     3    35 1   
    12     4    20 1   
    13     4    21 1   
    14     4    22 1   
    15     4    35 1   
    16     5    23 1   
    17     5    24 1   
    18     5    25 1   
    19     5    36 1   
    20     6     7 ar  
    21     6    36 1   
    22     7     8 ar  
    23     7    26 1   
    24     8     9 ar  
    25     8    27 1   
    26     9    10 1   
    27     9    15 ar  
    28    10    11 1   
    29    10    28 1   
    30    10    29 1   
    31    11    12 1   
    32    12    30 1   
    33    12    31 1   
    34    13    14 1   
    35    14    32 1   
    36    14    33 1   
    37    15    34 1   
@<TRIPOS>SUBSTRUCTURE
     1 8A5         1 TEMP              0 ****  ****    0 ROOT
