@<TRIPOS>MOLECULE
8A5
   36    37     1     0     0
SMALL
abcg2


@<TRIPOS>ATOM
      1 C10          4.1690    24.2560     5.9040 c6         1 8A5       0.153600
      2 C13          3.9410    21.7840     4.6230 c6         1 8A5       0.123800
      3 C15          9.8470    22.1910     5.8770 ca         1 8A5       0.107100
      4 C17         10.4000    21.1350     7.9230 c3         1 8A5       0.146900
      5 C01         11.9990    24.3200     3.8660 c3         1 8A5       0.145900
      6 C03         10.2650    23.0230     4.8200 ca         1 8A5       0.113100
      7 C04          9.3780    23.3060     3.7930 ca         1 8A5      -0.174000
      8 C05          8.0910    22.7720     3.7980 ca         1 8A5      -0.084000
      9 C06          7.6740    21.9460     4.8270 ca         1 8A5      -0.088300
     10 C07          6.2870    21.3600     4.8360 c3         1 8A5       0.217100
     11 N08          5.2540    22.3780     4.8010 n3         1 8A5      -0.711600
     12 C09          5.2610    23.2070     5.9920 c6         1 8A5       0.123800
     13 O11          2.8990    23.6720     5.7220 os         1 8A5      -0.450000
     14 C12          2.8810    22.8660     4.5660 c6         1 8A5       0.153600
     15 C14          8.5640    21.6650     5.8650 ca         1 8A5      -0.166000
     16 H1           4.3960    24.9470     5.0800 h1         1 8A5       0.050200
     17 H2           4.1340    24.8360     6.8270 h1         1 8A5       0.050200
     18 H3           3.7010    21.0760     5.4360 h1         1 8A5       0.042450
     19 H4           3.9230    21.2180     3.6890 h1         1 8A5       0.042450
     20 H5          11.2670    21.0840     8.5780 h1         1 8A5       0.038700
     21 H6           9.5540    21.5340     8.4910 h1         1 8A5       0.038700
     22 H7          10.1510    20.1230     7.5910 h1         1 8A5       0.038700
     23 H8          13.0260    24.5750     4.1150 h1         1 8A5       0.038700
     24 H9          11.9880    23.8150     2.8960 h1         1 8A5       0.038700
     25 H10         11.4180    25.2440     3.7850 h1         1 8A5       0.038700
     26 H11          9.6720    23.9440     2.9700 ha         1 8A5       0.119000
     27 H12          7.4170    23.0120     2.9860 ha         1 8A5       0.124000
     28 H13          6.1750    20.7010     5.7130 h1         1 8A5       0.037200
     29 H14          6.1530    20.7240     3.9560 h1         1 8A5       0.037200
     30 H16          5.1230    22.6020     6.9060 h1         1 8A5       0.042450
     31 H17          6.2250    23.7120     6.0850 h1         1 8A5       0.042450
     32 H18          3.0380    23.4810     3.6680 h1         1 8A5       0.050200
     33 H19          1.8890    22.4160     4.4950 h1         1 8A5       0.050200
     34 H20          8.2300    21.0270     6.6730 ha         1 8A5       0.116000
     35 O16         10.7580    21.9740     6.8460 os         1 8A5      -0.322100
     36 O02         11.5280    23.4870     4.9020 os         1 8A5      -0.322100
@<TRIPOS>BOND
     1     1    12 1   
     2     1    13 1   
     3     1    16 1   
     4     1    17 1   
     5     2    11 1   
     6     2    14 1   
     7     2    18 1   
     8     2    19 1   
     9     3     6 ar  
    10     3    15 ar  
    11     3    35 1   
    12     4    20 1   
    13     4    21 1   
    14     4    22 1   
    15     4    35 1   
    16     5    23 1   
    17     5    24 1   
    18     5    25 1   
    19     5    36 1   
    20     6     7 ar  
    21     6    36 1   
    22     7     8 ar  
    23     7    26 1   
    24     8     9 ar  
    25     8    27 1   
    26     9    10 1   
    27     9    15 ar  
    28    10    11 1   
    29    10    28 1   
    30    10    29 1   
    31    11    12 1   
    32    12    30 1   
    33    12    31 1   
    34    13    14 1   
    35    14    32 1   
    36    14    33 1   
    37    15    34 1   
@<TRIPOS>SUBSTRUCTURE
     1 8A5         1 TEMP              0 ****  ****    0 ROOT
