@<TRIPOS>MOLECULE
8A6
   74    78     1     0     0
SMALL
bcc


@<TRIPOS>ATOM
      1 C5           4.1560     1.4650     0.6000 cc         1 8A6      -0.310600
      2 C4           4.0130     0.6420    -0.6440 c6         1 8A6       0.199800
      3 C6           3.9780     2.8430     0.6160 cc         1 8A6       0.535600
      4 C3           3.2950     1.5480    -1.6430 ce         1 8A6      -0.257900
      5 C2           3.2120     2.9150    -1.5380 c2         1 8A6       0.402100
      6 O36         -4.7040     1.0050     3.1110 o          1 8A6      -0.604300
      7 O35         -5.4340    -1.2780     2.3650 o          1 8A6      -0.604300
      8 N34         -5.4280     0.6310     0.7510 n3         1 8A6      -0.719500
      9 C38         -4.9470     1.9480     0.3510 c3         1 8A6       0.173100
     10 C37         -5.7340    -0.2590    -0.3670 c3         1 8A6       0.246100
     11 C39         -7.0430     0.1240    -1.0060 ca         1 8A6      -0.096300
     12 C44         -7.1280     0.3520    -2.3740 ca         1 8A6      -0.110500
     13 C43         -8.3480     0.6650    -2.9630 ca         1 8A6      -0.130500
     14 C42         -9.4920     0.7600    -2.1840 ca         1 8A6      -0.121000
     15 C41         -9.4120     0.5400    -0.8130 ca         1 8A6      -0.130500
     16 C40         -8.1950     0.2240    -0.2290 ca         1 8A6      -0.110500
     17 C27         -3.0650    -0.4180     1.6530 ca         1 8A6      -0.305500
     18 C26         -2.0590     0.5100     1.8910 ca         1 8A6      -0.033000
     19 C25         -0.7630     0.2170     1.5040 ca         1 8A6      -0.141000
     20 C28         -2.7830    -1.6280     1.0300 ca         1 8A6      -0.033000
     21 C29         -1.4840    -1.9030     0.6420 ca         1 8A6      -0.141000
     22 C22         -0.4550    -0.9890     0.8750 cp         1 8A6       0.022000
     23 C20          0.9340    -1.2990     0.4830 cp         1 8A6      -0.058000
     24 C19          1.4160    -2.6070     0.5640 ca         1 8A6      -0.064000
     25 C18          2.7260    -2.8740     0.2190 ca         1 8A6      -0.203300
     26 C23          3.2870    -4.2580     0.3270 c3         1 8A6       0.721200
     27 F33          3.8370    -4.6600    -0.8280 f          1 8A6      -0.234633
     28 F32          4.2570    -4.3240     1.2520 f          1 8A6      -0.234633
     29 F31          2.3670    -5.1650     0.6610 f          1 8A6      -0.234633
     30 C17          3.5760    -1.8540    -0.2050 ca         1 8A6      -0.073000
     31 C21          1.7900    -0.2950     0.0510 ca         1 8A6      -0.068000
     32 C16          3.1160    -0.5500    -0.2920 ca         1 8A6      -0.067300
     33 C14          5.4170     0.2230    -1.1730 c3         1 8A6      -0.044700
     34 C24          5.3770    -0.4570    -2.5410 c3         1 8A6      -0.089100
     35 C15          6.3810     1.4030    -1.2350 c3         1 8A6      -0.089100
     36 C8           2.6560     0.9640    -2.7500 cg         1 8A6       0.222500
     37 N9           2.1010     0.4910    -3.6500 n1         1 8A6      -0.412800
     38 N7           2.7450     3.7450    -2.4780 nv         1 8A6      -0.849600
     39 C10          4.4880     1.1720     1.9110 cd         1 8A6      -0.035600
     40 C13          4.7850    -0.1140     2.5900 c3         1 8A6      -0.037800
     41 N11          4.4850     2.3530     2.5550 na         1 8A6      -0.003600
     42 N12          4.1710     3.3980     1.7830 nd         1 8A6      -0.507800
     43 O1           3.6320     3.5930    -0.4580 os         1 8A6      -0.332400
     44 H1          -3.9440     1.9100    -0.0860 h1         1 8A6       0.053700
     45 H2          -5.6280     2.3380    -0.4030 h1         1 8A6       0.053700
     46 H3          -4.9520     2.6370     1.1900 h1         1 8A6       0.053700
     47 H4          -4.9280    -0.2380    -1.1090 h1         1 8A6       0.059200
     48 H5          -5.8100    -1.2840    -0.0060 h1         1 8A6       0.059200
     49 H6          -6.2370     0.2840    -2.9860 ha         1 8A6       0.135000
     50 H7          -8.4000     0.8380    -4.0300 ha         1 8A6       0.132500
     51 H8         -10.4410     1.0070    -2.6400 ha         1 8A6       0.131000
     52 H9         -10.3000     0.6130    -0.1990 ha         1 8A6       0.132500
     53 H10         -8.1370     0.0550     0.8400 ha         1 8A6       0.135000
     54 H11         -2.2690     1.4450     2.3920 ha         1 8A6       0.154500
     55 H12          0.0190     0.9320     1.7250 ha         1 8A6       0.140500
     56 H13         -3.5580    -2.3610     0.8500 ha         1 8A6       0.154500
     57 H14         -1.2770    -2.8400     0.1410 ha         1 8A6       0.140500
     58 H15          0.7670    -3.3960     0.9210 ha         1 8A6       0.153000
     59 H16          4.6010    -2.0910    -0.4530 ha         1 8A6       0.151000
     60 H17          1.4200     0.7200    -0.0270 ha         1 8A6       0.145000
     61 H18          5.8350    -0.4830    -0.4460 hc         1 8A6       0.040700
     62 H19          5.1960     0.2710    -3.3340 hc         1 8A6       0.038200
     63 H20          6.3430    -0.9200    -2.7460 hc         1 8A6       0.038200
     64 H21          4.6180    -1.2340    -2.6280 hc         1 8A6       0.038200
     65 H22          7.3280     1.0820    -1.6710 hc         1 8A6       0.038200
     66 H23          5.9910     2.2070    -1.8650 hc         1 8A6       0.038200
     67 H24          6.5990     1.8160    -0.2510 hc         1 8A6       0.038200
     68 H25          2.3530     3.3730    -3.3260 hn         1 8A6       0.449800
     69 H26          2.4230     4.6610    -2.2100 hn         1 8A6       0.449800
     70 H27          5.6230    -0.6270     2.1180 hc         1 8A6       0.060033
     71 H28          5.0370     0.0410     3.6380 hc         1 8A6       0.060033
     72 H29          3.9250    -0.7830     2.5460 hc         1 8A6       0.060033
     73 H30          4.6770     2.5050     3.5320 hn         1 8A6       0.330700
     74 S30         -4.7350    -0.0320     2.0950 sy         1 8A6       1.299200
@<TRIPOS>BOND
     1     1     2 1   
     2     1     3 1   
     3     1    39 2   
     4     2     4 1   
     5     2    32 1   
     6     2    33 1   
     7     3    42 2   
     8     3    43 1   
     9     4     5 2   
    10     4    36 1   
    11     5    38 1   
    12     5    43 1   
    13     6    74 2   
    14     7    74 2   
    15     8     9 1   
    16     8    10 1   
    17     8    74 1   
    18     9    44 1   
    19     9    45 1   
    20     9    46 1   
    21    10    11 1   
    22    10    47 1   
    23    10    48 1   
    24    11    12 ar  
    25    11    16 ar  
    26    12    13 ar  
    27    12    49 1   
    28    13    14 ar  
    29    13    50 1   
    30    14    15 ar  
    31    14    51 1   
    32    15    16 ar  
    33    15    52 1   
    34    16    53 1   
    35    17    18 ar  
    36    17    20 ar  
    37    17    74 1   
    38    18    19 ar  
    39    18    54 1   
    40    19    22 ar  
    41    19    55 1   
    42    20    21 ar  
    43    20    56 1   
    44    21    22 ar  
    45    21    57 1   
    46    22    23 1   
    47    23    24 ar  
    48    23    31 ar  
    49    24    25 ar  
    50    24    58 1   
    51    25    26 1   
    52    25    30 ar  
    53    26    27 1   
    54    26    28 1   
    55    26    29 1   
    56    30    32 ar  
    57    30    59 1   
    58    31    32 ar  
    59    31    60 1   
    60    33    34 1   
    61    33    35 1   
    62    33    61 1   
    63    34    62 1   
    64    34    63 1   
    65    34    64 1   
    66    35    65 1   
    67    35    66 1   
    68    35    67 1   
    69    36    37 3   
    70    38    68 1   
    71    38    69 1   
    72    39    40 1   
    73    39    41 1   
    74    40    70 1   
    75    40    71 1   
    76    40    72 1   
    77    41    42 1   
    78    41    73 1   
@<TRIPOS>SUBSTRUCTURE
     1 8A6         1 TEMP              0 ****  ****    0 ROOT
