@<TRIPOS>MOLECULE
8A6
   74    78     1     0     0
SMALL
No Charge or Current Charge


@<TRIPOS>ATOM
      1 C5           3.9090     1.8010     0.0720 cc         1 8A6      -0.245300
      2 C4           3.6270     0.6940    -0.8860 c6         1 8A6       0.199800
      3 C6           3.5230     3.1460    -0.0930 cc         1 8A6       0.470300
      4 C3           2.4140     1.6630    -2.3120 ce         1 8A6      -0.257900
      5 C2           2.2780     2.9810    -2.1400 c2         1 8A6       0.402100
      6 O36         -5.2920     0.1070     3.8050 o          1 8A6      -0.533500
      7 O35         -5.9720    -2.1710     2.8250 o          1 8A6      -0.533500
      8 N34         -5.9380    -0.1030     1.3390 n3         1 8A6      -0.719500
      9 C38         -7.0700     0.8050     1.6570 c3         1 8A6       0.173100
     10 C37         -4.9480     0.4550     0.3820 c3         1 8A6       0.246100
     11 C39         -5.5570     1.0640    -0.8790 ca         1 8A6      -0.096300
     12 C44         -5.2980     2.4110    -1.2100 ca         1 8A6      -0.092500
     13 C43         -5.8420     2.9700    -2.3790 ca         1 8A6      -0.112500
     14 C42         -6.6490     2.1880    -3.2260 ca         1 8A6      -0.103000
     15 C41         -6.9060     0.8420    -2.9050 ca         1 8A6      -0.112500
     16 C40         -6.3590     0.2800    -1.7380 ca         1 8A6      -0.092500
     17 C27         -3.5540    -1.1860     2.2720 ca         1 8A6      -0.305500
     18 C26         -2.5770    -0.2030     2.5330 ca         1 8A6      -0.015000
     19 C25         -1.2460    -0.4130     2.1390 ca         1 8A6      -0.123000
     20 C28         -3.1770    -2.3910     1.6450 ca         1 8A6      -0.015000
     21 C29         -1.8370    -2.5990     1.2680 ca         1 8A6      -0.123000
     22 C22         -0.8500    -1.6090     1.4970 cp         1 8A6       0.022000
     23 C20          0.5660    -1.8050     1.0590 cp         1 8A6      -0.058000
     24 C19          1.2300    -3.0430     1.2440 ca         1 8A6      -0.046000
     25 C18          2.5730    -3.2240     0.8410 ca         1 8A6      -0.203300
     26 C23          3.2860    -4.5580     1.0830 c3         1 8A6       0.357300
     27 F33          4.2650    -4.7920     0.1780 f          1 8A6      -0.113333
     28 F32          3.8630    -4.5890     2.3050 f          1 8A6      -0.113333
     29 F31          2.4410    -5.6130     1.0170 f          1 8A6      -0.113333
     30 C17          3.2570    -2.1450     0.2400 ca         1 8A6      -0.055000
     31 C21          1.2810    -0.7480     0.4480 ca         1 8A6      -0.050000
     32 C16          2.6110    -0.9170     0.0370 ca         1 8A6      -0.067300
     33 C14          5.4450     0.0420    -1.8400 c3         1 8A6      -0.044700
     34 C24          5.1640    -1.0090    -2.9310 c3         1 8A6      -0.089100
     35 C15          6.2360     1.2380    -2.4040 c3         1 8A6      -0.089100
     36 C8           1.8160     0.9150    -3.3700 cg         1 8A6       0.311700
     37 N9           1.3000     0.3440    -4.2480 n1         1 8A6      -0.502000
     38 N7           1.5620     3.8340    -2.9180 nv         1 8A6      -0.960000
     39 C10          4.5610     1.7500     1.2640 cd         1 8A6      -0.086300
     40 C13          5.1850     0.5850     1.9890 c3         1 8A6      -0.037800
     41 N11          4.5450     3.0760     1.7320 na         1 8A6      -0.003200
     42 N12          3.8920     3.9560     0.8670 nd         1 8A6      -0.507800
     43 O1           2.8370     3.6970    -1.1390 os         1 8A6      -0.332400
     44 H1          -6.7200     1.7140     2.1710 h1         1 8A6       0.053700
     45 H2          -7.6040     1.1130     0.7480 h1         1 8A6       0.053700
     46 H3          -7.8040     0.3050     2.3080 h1         1 8A6       0.053700
     47 H4          -4.3320     1.2200     0.8800 h1         1 8A6       0.059200
     48 H5          -4.2680    -0.3360     0.0360 h1         1 8A6       0.059200
     49 H6          -4.6710     3.0240    -0.5630 ha         1 8A6       0.117000
     50 H7          -5.6370     4.0100    -2.6300 ha         1 8A6       0.114500
     51 H8          -7.0710     2.6220    -4.1300 ha         1 8A6       0.113000
     52 H9          -7.5280     0.2350    -3.5620 ha         1 8A6       0.114500
     53 H10         -6.5570    -0.7630    -1.4950 ha         1 8A6       0.117000
     54 H11         -2.8470     0.7320     3.0220 ha         1 8A6       0.136500
     55 H12         -0.5090     0.3610     2.3410 ha         1 8A6       0.122500
     56 H13         -3.9160    -3.1620     1.4330 ha         1 8A6       0.136500
     57 H14         -1.5650    -3.5260     0.7700 ha         1 8A6       0.122500
     58 H15          0.6970    -3.8600     1.7270 ha         1 8A6       0.135000
     59 H16          4.2960    -2.2510    -0.0660 ha         1 8A6       0.133000
     60 H17          0.7970     0.2100     0.2800 ha         1 8A6       0.127000
     61 H18          6.0740    -0.4360    -1.0800 hc         1 8A6       0.040700
     62 H19          4.5600    -0.5760    -3.7370 hc         1 8A6       0.038200
     63 H20          6.1000    -1.3850    -3.3620 hc         1 8A6       0.038200
     64 H21          4.6140    -1.8590    -2.5120 hc         1 8A6       0.038200
     65 H22          7.1800     0.9060    -2.8540 hc         1 8A6       0.038200
     66 H23          5.6500     1.7610    -3.1690 hc         1 8A6       0.038200
     67 H24          6.4690     1.9510    -1.6040 hc         1 8A6       0.038200
     68 H25          0.8010     3.4180    -3.4480 hn         1 8A6       0.505000
     69 H26          1.3470     4.7310    -2.4930 hn         1 8A6       0.505000
     70 H27          5.8360     0.0070     1.3230 hc         1 8A6       0.060033
     71 H28          5.7930     0.9190     2.8380 hc         1 8A6       0.060033
     72 H29          4.4150    -0.0930     2.3750 hc         1 8A6       0.060033
     73 H30          4.9510     3.4070     2.6010 hn         1 8A6       0.381000
     74 S30         -5.2820    -0.8810     2.7180 sy         1 8A6       1.157600
@<TRIPOS>BOND
     1     1     2 1   
     2     1     3 1   
     3     1    39 2   
     4     2     4 1   
     5     2    32 1   
     6     2    33 1   
     7     3    42 2   
     8     3    43 1   
     9     4     5 2   
    10     4    36 1   
    11     5    38 1   
    12     5    43 1   
    13     6    74 2   
    14     7    74 2   
    15     8     9 1   
    16     8    10 1   
    17     8    74 1   
    18     9    44 1   
    19     9    45 1   
    20     9    46 1   
    21    10    11 1   
    22    10    47 1   
    23    10    48 1   
    24    11    12 ar  
    25    11    16 ar  
    26    12    13 ar  
    27    12    49 1   
    28    13    14 ar  
    29    13    50 1   
    30    14    15 ar  
    31    14    51 1   
    32    15    16 ar  
    33    15    52 1   
    34    16    53 1   
    35    17    18 ar  
    36    17    20 ar  
    37    17    74 1   
    38    18    19 ar  
    39    18    54 1   
    40    19    22 ar  
    41    19    55 1   
    42    20    21 ar  
    43    20    56 1   
    44    21    22 ar  
    45    21    57 1   
    46    22    23 1   
    47    23    24 ar  
    48    23    31 ar  
    49    24    25 ar  
    50    24    58 1   
    51    25    26 1   
    52    25    30 ar  
    53    26    27 1   
    54    26    28 1   
    55    26    29 1   
    56    30    32 ar  
    57    30    59 1   
    58    31    32 ar  
    59    31    60 1   
    60    33    34 1   
    61    33    35 1   
    62    33    61 1   
    63    34    62 1   
    64    34    63 1   
    65    34    64 1   
    66    35    65 1   
    67    35    66 1   
    68    35    67 1   
    69    36    37 3   
    70    38    68 1   
    71    38    69 1   
    72    39    40 1   
    73    39    41 1   
    74    40    70 1   
    75    40    71 1   
    76    40    72 1   
    77    41    42 1   
    78    41    73 1   
@<TRIPOS>SUBSTRUCTURE
     1 8A6         1 TEMP              0 ****  ****    0 ROOT
