@<TRIPOS>MOLECULE
8A8
   36    38     1     0     0
SMALL
No Charge or Current Charge


@<TRIPOS>ATOM
      1 C4         -14.1020    15.4730   -10.7520 ca         1 8A8      -0.159000
      2 C14        -16.4120    14.7430    -9.3270 ca         1 8A8      -0.012000
      3 C5         -13.9880    14.9550    -9.4440 ca         1 8A8       0.183100
      4 C6         -11.5250    15.1290    -9.4400 c3         1 8A8       0.165600
      5 C11         -7.8070    14.7260    -8.1850 c6         1 8A8      -0.072900
      6 C7         -10.3580    14.8240    -8.4580 c6         1 8A8      -0.066700
      7 C8         -10.4460    15.6730    -7.1560 c6         1 8A8      -0.070400
      8 C9          -9.2720    15.3640    -6.1950 c6         1 8A8      -0.072900
      9 C10         -7.9050    15.5710    -6.8920 c6         1 8A8      -0.076400
     10 C12         -8.9810    15.0360    -9.1480 c6         1 8A8      -0.070400
     11 C13        -15.1460    14.5930    -8.7400 ca         1 8A8      -0.140000
     12 N1         -17.8480    15.9550   -12.5840 nc         1 8A8      -0.173400
     13 N2         -16.8220    16.3260   -13.3340 nd         1 8A8      -0.174400
     14 C3         -15.3740    15.6280   -11.3530 ca         1 8A8      -0.096600
     15 C1         -17.8600    15.4360   -11.2950 c          1 8A8       0.635100
     16 C2         -15.5230    16.1820   -12.7570 c          1 8A8       0.622100
     17 O2         -14.5420    16.5120   -13.4110 o          1 8A8      -0.439100
     18 O3         -12.7740    14.7840    -8.8130 os         1 8A8      -0.345100
     19 C15        -16.5260    15.2610   -10.6340 ca         1 8A8      -0.198600
     20 H1         -13.2160    15.7580   -11.3120 ha         1 8A8       0.145000
     21 H2         -17.3000    14.4560    -8.7640 ha         1 8A8       0.144000
     22 H3         -11.3830    14.5400   -10.3550 h1         1 8A8       0.045700
     23 H4         -11.5020    16.1950    -9.7030 h1         1 8A8       0.045700
     24 H5          -7.8100    13.6570    -7.9300 hc         1 8A8       0.042200
     25 H6          -6.8510    14.9240    -8.6880 hc         1 8A8       0.042200
     26 H7         -10.4510    13.7610    -8.1930 hc         1 8A8       0.063700
     27 H8         -10.4430    16.7430    -7.4070 hc         1 8A8       0.043200
     28 H9         -11.3960    15.4790    -6.6390 hc         1 8A8       0.043200
     29 H10         -9.3380    16.0080    -5.3070 hc         1 8A8       0.042200
     30 H11         -9.3510    14.3280    -5.8350 hc         1 8A8       0.042200
     31 H12         -7.0910    15.3000    -6.2060 hc         1 8A8       0.041200
     32 H13         -7.7700    16.6340    -7.1330 hc         1 8A8       0.041200
     33 H14         -8.9030    14.3940   -10.0370 hc         1 8A8       0.043200
     34 H15         -8.8970    16.0720    -9.5050 hc         1 8A8       0.043200
     35 H16        -15.0590    14.1940    -7.7330 ha         1 8A8       0.141000
     36 O1         -18.9030    15.1360   -10.7270 o          1 8A8      -0.447100
@<TRIPOS>BOND
     1     1     3 ar  
     2     1    14 ar  
     3     1    20 1   
     4     2    11 ar  
     5     2    19 ar  
     6     2    21 1   
     7     3    11 ar  
     8     3    18 1   
     9     4     6 1   
    10     4    18 1   
    11     4    22 1   
    12     4    23 1   
    13     5     9 1   
    14     5    10 1   
    15     5    24 1   
    16     5    25 1   
    17     6     7 1   
    18     6    10 1   
    19     6    26 1   
    20     7     8 1   
    21     7    27 1   
    22     7    28 1   
    23     8     9 1   
    24     8    29 1   
    25     8    30 1   
    26     9    31 1   
    27     9    32 1   
    28    10    33 1   
    29    10    34 1   
    30    11    35 1   
    31    12    13 2   
    32    12    15 1   
    33    13    16 1   
    34    14    16 1   
    35    14    19 ar  
    36    15    19 1   
    37    15    36 2   
    38    16    17 2   
@<TRIPOS>SUBSTRUCTURE
     1 8A8         1 TEMP              0 ****  ****    0 ROOT
