@<TRIPOS>MOLECULE
8A8
   36    38     1     0     0
SMALL
abcg2


@<TRIPOS>ATOM
      1 C4         -14.0220    15.4570   -10.7180 ca         1 8A8      -0.159000
      2 C14        -16.3370    14.7160    -9.3190 ca         1 8A8      -0.012000
      3 C5         -13.9290    14.9090    -9.4350 ca         1 8A8       0.183100
      4 C6         -11.5320    15.0650    -9.4190 c3         1 8A8       0.165600
      5 C11         -7.8790    14.7530    -8.2090 c6         1 8A8      -0.072900
      6 C7         -10.4010    14.7910    -8.4480 c6         1 8A8      -0.066700
      7 C8         -10.4920    15.6620    -7.1910 c6         1 8A8      -0.070400
      8 C9          -9.3170    15.4110    -6.2440 c6         1 8A8      -0.072900
      9 C10         -7.9760    15.6160    -6.9500 c6         1 8A8      -0.076400
     10 C12         -9.0560    15.0030    -9.1540 c6         1 8A8      -0.070400
     11 C13        -15.0990    14.5400    -8.7450 ca         1 8A8      -0.140000
     12 N1         -17.7810    16.0780   -12.5940 nc         1 8A8      -0.173400
     13 N2         -16.7590    16.4000   -13.2070 nd         1 8A8      -0.174400
     14 C3         -15.2780    15.6310   -11.2870 ca         1 8A8      -0.096600
     15 C1         -17.7280    15.4680   -11.2390 c          1 8A8       0.635100
     16 C2         -15.4070    16.1990   -12.6290 c          1 8A8       0.622100
     17 O2         -14.4950    16.5370   -13.3420 o          1 8A8      -0.439100
     18 O3         -12.7790    14.6990    -8.7870 os         1 8A8      -0.345100
     19 C15        -16.4430    15.2680   -10.6020 ca         1 8A8      -0.198600
     20 H1         -13.1460    15.7460   -11.2770 ha         1 8A8       0.145000
     21 H2         -17.2340    14.4320    -8.7860 ha         1 8A8       0.144000
     22 H3         -11.4180    14.4760   -10.3320 h1         1 8A8       0.045700
     23 H4         -11.5670    16.1260    -9.6830 h1         1 8A8       0.045700
     24 H5          -7.8710    13.6960    -7.9200 hc         1 8A8       0.042200
     25 H6          -6.9370    14.9440    -8.7300 hc         1 8A8       0.042200
     26 H7         -10.4670    13.7380    -8.1490 hc         1 8A8       0.063700
     27 H8         -10.4930    16.7150    -7.4970 hc         1 8A8       0.043200
     28 H9         -11.4380    15.4800    -6.6760 hc         1 8A8       0.043200
     29 H10         -9.3940    16.0680    -5.3730 hc         1 8A8       0.042200
     30 H11         -9.3720    14.3820    -5.8690 hc         1 8A8       0.042200
     31 H12         -7.1510    15.3870    -6.2710 hc         1 8A8       0.041200
     32 H13         -7.8740    16.6710    -7.2280 hc         1 8A8       0.041200
     33 H14         -8.9850    14.3470   -10.0270 hc         1 8A8       0.043200
     34 H15         -9.0080    16.0330    -9.5260 hc         1 8A8       0.043200
     35 H16        -15.0010    14.1170    -7.7540 ha         1 8A8       0.141000
     36 O1         -18.8090    15.1850   -10.7750 o          1 8A8      -0.447100
@<TRIPOS>BOND
     1     1     3 ar  
     2     1    14 ar  
     3     1    20 1   
     4     2    11 ar  
     5     2    19 ar  
     6     2    21 1   
     7     3    11 ar  
     8     3    18 1   
     9     4     6 1   
    10     4    18 1   
    11     4    22 1   
    12     4    23 1   
    13     5     9 1   
    14     5    10 1   
    15     5    24 1   
    16     5    25 1   
    17     6     7 1   
    18     6    10 1   
    19     6    26 1   
    20     7     8 1   
    21     7    27 1   
    22     7    28 1   
    23     8     9 1   
    24     8    29 1   
    25     8    30 1   
    26     9    31 1   
    27     9    32 1   
    28    10    33 1   
    29    10    34 1   
    30    11    35 1   
    31    12    13 2   
    32    12    15 1   
    33    13    16 1   
    34    14    16 1   
    35    14    19 ar  
    36    15    19 1   
    37    15    36 2   
    38    16    17 2   
@<TRIPOS>SUBSTRUCTURE
     1 8A8         1 TEMP              0 ****  ****    0 ROOT
