@<TRIPOS>MOLECULE
8AB
   31    32     1     0     0
SMALL
No Charge or Current Charge


@<TRIPOS>ATOM
      1 C10          0.1990   -15.2370   -10.4310 ca         1 8AB      -0.036000
      2 C13          2.1910   -14.3930    -7.2820 c3         1 8AB      -0.146400
      3 C02         -3.4420   -16.6910    -5.5470 c6         1 8AB       0.157500
      4 C03         -2.1620   -16.8040    -6.4500 c6         1 8AB       0.219800
      5 N04         -2.2540   -15.9880    -7.7120 nh         1 8AB      -0.775300
      6 C05         -3.5560   -16.1680    -8.4340 c6         1 8AB       0.215800
      7 C06         -4.8000   -16.0720    -7.4890 c6         1 8AB       0.150800
      8 N07         -4.6990   -16.9570    -6.2950 n7         1 8AB      -0.861400
      9 C08         -1.0900   -15.6120    -8.4080 ca         1 8AB       0.624900
     10 C09         -0.9940   -15.6370    -9.8140 ca         1 8AB      -0.237000
     11 C11          1.2540   -14.8260    -9.6070 ca         1 8AB      -0.221000
     12 C12          1.0780   -14.8330    -8.2130 ca         1 8AB       0.405300
     13 N14         -0.0720   -15.2170    -7.6240 nb         1 8AB      -0.756000
     14 H1           0.3030   -15.2470   -11.5140 ha         1 8AB       0.112000
     15 H2           2.2560   -15.0440    -6.4020 hc         1 8AB       0.049367
     16 H3           3.1650   -14.4200    -7.7840 hc         1 8AB       0.049367
     17 H4           2.0220   -13.3680    -6.9320 hc         1 8AB       0.049367
     18 H8          -3.4860   -15.6620    -5.1570 h1         1 8AB       0.031700
     19 H9          -2.0080   -17.8610    -6.7120 h1         1 8AB       0.060200
     20 H10         -1.3000   -16.4990    -5.8390 h1         1 8AB       0.060200
     21 H11         -3.6700   -15.3990    -9.2120 h1         1 8AB       0.044200
     22 H12         -3.5670   -17.1470    -8.9350 h1         1 8AB       0.044200
     23 H13         -4.9050   -15.0300    -7.1530 h1         1 8AB       0.037700
     24 H14         -5.7080   -16.3240    -8.0570 h1         1 8AB       0.037700
     25 H15         -5.5000   -16.7770    -5.6780 hn         1 8AB       0.412000
     26 H17         -1.8240   -15.9710   -10.4270 ha         1 8AB       0.120000
     27 H18          2.1970   -14.5050   -10.0400 ha         1 8AB       0.122000
     28 C01         -3.3710   -17.6460    -4.3300 c3         1 8AB      -0.090100
     29 H5          -4.2420   -17.5230    -3.6760 hc         1 8AB       0.040700
     30 H6          -3.3320   -18.6950    -4.6470 hc         1 8AB       0.040700
     31 H7          -2.4770   -17.4460    -3.7270 hc         1 8AB       0.040700
@<TRIPOS>BOND
     1     1    10 ar  
     2     1    11 ar  
     3     1    14 1   
     4     2    12 1   
     5     2    15 1   
     6     2    16 1   
     7     2    17 1   
     8     3     4 1   
     9     3     8 1   
    10     3    18 1   
    11     3    28 1   
    12     4     5 1   
    13     4    19 1   
    14     4    20 1   
    15     5     6 1   
    16     5     9 1   
    17     6     7 1   
    18     6    21 1   
    19     6    22 1   
    20     7     8 1   
    21     7    23 1   
    22     7    24 1   
    23     8    25 1   
    24     9    10 ar  
    25     9    13 ar  
    26    10    26 1   
    27    11    12 ar  
    28    11    27 1   
    29    12    13 ar  
    30    28    29 1   
    31    28    30 1   
    32    28    31 1   
@<TRIPOS>SUBSTRUCTURE
     1 8AB         1 TEMP              0 ****  ****    0 ROOT
