@<TRIPOS>MOLECULE
8AB
   31    32     1     0     0
SMALL
abcg2


@<TRIPOS>ATOM
      1 C10          0.0360   -14.9390   -10.3260 ca         1 8AB      -0.036000
      2 C13          2.1980   -14.7080    -7.2520 c3         1 8AB      -0.146400
      3 C02         -3.4230   -16.5890    -5.5950 c6         1 8AB       0.157500
      4 C03         -2.1690   -16.7280    -6.4440 c6         1 8AB       0.219800
      5 N04         -2.2990   -16.0300    -7.7120 nh         1 8AB      -0.775300
      6 C05         -3.5000   -16.3570    -8.4530 c6         1 8AB       0.215800
      7 C06         -4.7240   -16.2390    -7.5610 c6         1 8AB       0.150800
      8 N07         -4.5600   -17.0490    -6.3730 n7         1 8AB      -0.861400
      9 C08         -1.1660   -15.6170    -8.3710 ca         1 8AB       0.624900
     10 C09         -1.1340   -15.4060    -9.7630 ca         1 8AB      -0.237000
     11 C11          1.1500   -14.6990    -9.5350 ca         1 8AB      -0.221000
     12 C12          1.0400   -14.9550    -8.1740 ca         1 8AB       0.405300
     13 N14         -0.0820   -15.4020    -7.6230 nb         1 8AB      -0.756000
     14 H1           0.0810   -14.7740   -11.3960 ha         1 8AB       0.112000
     15 H2           2.0750   -15.2480    -6.3160 hc         1 8AB       0.049367
     16 H3           3.1420   -15.0060    -7.7080 hc         1 8AB       0.049367
     17 H4           2.2790   -13.6450    -7.0140 hc         1 8AB       0.049367
     18 H8          -3.5240   -15.5230    -5.3260 h1         1 8AB       0.031700
     19 H9          -1.9770   -17.7970    -6.6170 h1         1 8AB       0.060200
     20 H10         -1.3190   -16.3230    -5.9020 h1         1 8AB       0.060200
     21 H11         -3.6290   -15.6590    -9.2780 h1         1 8AB       0.044200
     22 H12         -3.4430   -17.3690    -8.8790 h1         1 8AB       0.044200
     23 H13         -4.8850   -15.1740    -7.3320 h1         1 8AB       0.037700
     24 H14         -5.5940   -16.5870    -8.1210 h1         1 8AB       0.037700
     25 H15         -5.4000   -16.9980    -5.8100 hn         1 8AB       0.412000
     26 H17         -1.9810   -15.6170   -10.3980 ha         1 8AB       0.120000
     27 H18          2.0780   -14.3370    -9.9590 ha         1 8AB       0.122000
     28 C01         -3.2900   -17.4010    -4.3190 c3         1 8AB      -0.090100
     29 H5          -4.1850   -17.3070    -3.7020 hc         1 8AB       0.040700
     30 H6          -3.1450   -18.4590    -4.5430 hc         1 8AB       0.040700
     31 H7          -2.4420   -17.0570    -3.7260 hc         1 8AB       0.040700
@<TRIPOS>BOND
     1     1    10 ar  
     2     1    11 ar  
     3     1    14 1   
     4     2    12 1   
     5     2    15 1   
     6     2    16 1   
     7     2    17 1   
     8     3     4 1   
     9     3     8 1   
    10     3    18 1   
    11     3    28 1   
    12     4     5 1   
    13     4    19 1   
    14     4    20 1   
    15     5     6 1   
    16     5     9 1   
    17     6     7 1   
    18     6    21 1   
    19     6    22 1   
    20     7     8 1   
    21     7    23 1   
    22     7    24 1   
    23     8    25 1   
    24     9    10 ar  
    25     9    13 ar  
    26    10    26 1   
    27    11    12 ar  
    28    11    27 1   
    29    12    13 ar  
    30    28    29 1   
    31    28    30 1   
    32    28    31 1   
@<TRIPOS>SUBSTRUCTURE
     1 8AB         1 TEMP              0 ****  ****    0 ROOT
