@<TRIPOS>MOLECULE
8AC
   27    26     1     0     0
SMALL
No Charge or Current Charge


@<TRIPOS>ATOM
      1 NAA         -6.0670     0.4710     0.0630 n8         1 8AC      -0.996200
      2 OAB          4.5760     0.6380    -1.0030 o          1 8AC      -0.744000
      3 OAC          4.5760     0.3040     1.1240 o          1 8AC      -0.744000
      4 CAD         -4.8900    -0.4050    -0.0740 c3         1 8AC       0.146800
      5 CAE         -3.5730     0.3880     0.0500 c3         1 8AC      -0.078400
      6 CAF         -2.3200    -0.5050    -0.0900 c3         1 8AC      -0.076400
      7 CAG         -0.9970     0.2830     0.0330 c3         1 8AC      -0.074400
      8 CAH          0.2550    -0.6120    -0.1080 c3         1 8AC      -0.079400
      9 CAI          1.5790     0.1760     0.0150 c3         1 8AC      -0.053400
     10 CAJ          2.8350    -0.7190    -0.1260 c3         1 8AC      -0.203400
     11 CAK          4.1110     0.1330     0.0080 c          1 8AC       0.716000
     12 HNAA        -6.9170    -0.1050     0.0410 hn         1 8AC       0.384500
     13 HNAB        -6.0740     0.8740     1.0080 hn         1 8AC       0.384500
     14 HAD         -4.9330    -1.1760     0.7080 h1         1 8AC       0.023700
     15 HADA        -4.9340    -0.9000    -1.0540 h1         1 8AC       0.023700
     16 HAE         -3.5470     1.1680    -0.7210 hc         1 8AC       0.043700
     17 HAEA        -3.5450     0.8950     1.0230 hc         1 8AC       0.043700
     18 HAF         -2.3470    -1.2860     0.6800 hc         1 8AC       0.031200
     19 HAFA        -2.3480    -1.0130    -1.0630 hc         1 8AC       0.031200
     20 HAG         -0.9700     1.0640    -0.7380 hc         1 8AC       0.035200
     21 HAGA        -0.9690     0.7900     1.0050 hc         1 8AC       0.035200
     22 HAH          0.2270    -1.3920     0.6620 hc         1 8AC       0.023200
     23 HAHA         0.2260    -1.1190    -1.0810 hc         1 8AC       0.023200
     24 HAI          1.6050     0.9580    -0.7540 hc         1 8AC       0.038200
     25 HAIA         1.6050     0.6840     0.9870 hc         1 8AC       0.038200
     26 HAJ          2.7750    -1.4510     0.6890 hc         1 8AC       0.014200
     27 HAJA         2.7740    -1.1660    -1.1260 hc         1 8AC       0.014200
@<TRIPOS>BOND
     1     1     4 1   
     2     1    12 1   
     3     1    13 1   
     4     2    11 1   
     5     3    11 1   
     6     4     5 1   
     7     4    14 1   
     8     4    15 1   
     9     5     6 1   
    10     5    16 1   
    11     5    17 1   
    12     6     7 1   
    13     6    18 1   
    14     6    19 1   
    15     7     8 1   
    16     7    20 1   
    17     7    21 1   
    18     8     9 1   
    19     8    22 1   
    20     8    23 1   
    21     9    10 1   
    22     9    24 1   
    23     9    25 1   
    24    10    11 1   
    25    10    26 1   
    26    10    27 1   
@<TRIPOS>SUBSTRUCTURE
     1 8AC         1 TEMP              0 ****  ****    0 ROOT
