@<TRIPOS>MOLECULE
8AC
   27    26     1     0     0
SMALL
bcc


@<TRIPOS>ATOM
      1 NAA         -6.0170     0.4400    -0.0360 n8         1 8AC      -0.885800
      2 OAB          4.1190     1.3160    -0.1330 o          1 8AC      -0.849300
      3 OAC          5.1280    -0.6460     0.1610 o          1 8AC      -0.849300
      4 CAD         -4.8490    -0.4320    -0.0410 c3         1 8AC       0.146800
      5 CAE         -3.5620     0.3780    -0.0380 c3         1 8AC      -0.078400
      6 CAF         -2.3140    -0.4950    -0.0370 c3         1 8AC      -0.076400
      7 CAG         -1.0180     0.3070    -0.0380 c3         1 8AC      -0.074400
      8 CAH          0.2300    -0.5670    -0.0230 c3         1 8AC      -0.079400
      9 CAI          1.5270     0.2340    -0.0220 c3         1 8AC      -0.053400
     10 CAJ          2.7630    -0.6500     0.0090 c3         1 8AC      -0.203400
     11 CAK          4.1190     0.0780     0.0150 c          1 8AC       0.926600
     12 HNAA        -6.8580    -0.1230    -0.0670 hn         1 8AC       0.329300
     13 HNAB        -6.0560     0.9330     0.8480 hn         1 8AC       0.329300
     14 HAD         -4.8260    -1.1370     0.8030 h1         1 8AC       0.023700
     15 HADA        -4.8830    -1.0430    -0.9480 h1         1 8AC       0.023700
     16 HAE         -3.5520     1.0380    -0.9110 hc         1 8AC       0.043700
     17 HAEA        -3.5470     1.0310     0.8420 hc         1 8AC       0.043700
     18 HAF         -2.3300    -1.1530     0.8400 hc         1 8AC       0.031200
     19 HAFA        -2.3310    -1.1560    -0.9110 hc         1 8AC       0.031200
     20 HAG         -0.9950     0.9590    -0.9180 hc         1 8AC       0.035200
     21 HAGA        -1.0040     0.9730     0.8320 hc         1 8AC       0.035200
     22 HAH          0.2020    -1.2200     0.8570 hc         1 8AC       0.023200
     23 HAHA         0.2140    -1.2350    -0.8920 hc         1 8AC       0.023200
     24 HAI          1.5530     0.8780    -0.9050 hc         1 8AC       0.038200
     25 HAIA         1.5310     0.9070     0.8410 hc         1 8AC       0.038200
     26 HAJ          2.7230    -1.3100     0.8830 hc         1 8AC       0.014200
     27 HAJA         2.7480    -1.3280    -0.8540 hc         1 8AC       0.014200
@<TRIPOS>BOND
     1     1     4 1   
     2     1    12 1   
     3     1    13 1   
     4     2    11 1   
     5     3    11 1   
     6     4     5 1   
     7     4    14 1   
     8     4    15 1   
     9     5     6 1   
    10     5    16 1   
    11     5    17 1   
    12     6     7 1   
    13     6    18 1   
    14     6    19 1   
    15     7     8 1   
    16     7    20 1   
    17     7    21 1   
    18     8     9 1   
    19     8    22 1   
    20     8    23 1   
    21     9    10 1   
    22     9    24 1   
    23     9    25 1   
    24    10    11 1   
    25    10    26 1   
    26    10    27 1   
@<TRIPOS>SUBSTRUCTURE
     1 8AC         1 TEMP              0 ****  ****    0 ROOT
