@<TRIPOS>MOLECULE
8AE
   30    31     1     0     0
SMALL
No Charge or Current Charge


@<TRIPOS>ATOM
      1 C4          14.8960    13.9940     8.8020 ca         1 8AE      -0.189500
      2 C5          13.7140    14.5260     9.3330 ca         1 8AE       0.172100
      3 C6          11.2610    14.7070     9.1740 c3         1 8AE       0.172600
      4 C11         13.7800    15.3590    10.4680 ca         1 8AE      -0.189500
      5 C7          10.1640    14.1500     8.2440 cy         1 8AE      -0.084700
      6 C8           8.7110    14.7250     8.3880 cy         1 8AE      -0.085400
      7 C9           9.1200    15.7770     7.3050 cy         1 8AE      -0.095400
      8 C10         10.0930    14.6780     6.7670 cy         1 8AE      -0.085400
      9 C12         15.0210    15.6520    11.0610 ca         1 8AE      -0.031000
     10 N1          17.6220    16.2090    12.2280 nt         1 8AE      -0.606000
     11 C3          16.1390    14.2830     9.3900 ca         1 8AE      -0.031000
     12 O1          18.6090    14.9550    10.6920 o          1 8AE      -0.609100
     13 C2          16.2180    15.1160    10.5290 ca         1 8AE      -0.196600
     14 O2          12.5260    14.2060     8.7110 os         1 8AE      -0.343100
     15 H1          14.8500    13.3510     7.9260 ha         1 8AE       0.125000
     16 H2          11.2410    15.8040     9.1490 h1         1 8AE       0.037200
     17 H3          11.0560    14.3700    10.1990 h1         1 8AE       0.037200
     18 H4          12.8830    15.7880    10.9050 ha         1 8AE       0.125000
     19 H5          10.2070    13.0580     8.3200 hc         1 8AE       0.072700
     20 H6           8.4460    15.1280     9.3720 hc         1 8AE       0.054450
     21 H7           7.9180    14.0350     8.0710 hc         1 8AE       0.054450
     22 H8           9.6120    16.6740     7.6990 hc         1 8AE       0.049700
     23 H9           8.3260    16.0900     6.6190 hc         1 8AE       0.049700
     24 H10          9.6360    13.9770     6.0580 hc         1 8AE       0.054450
     25 H11         11.0340    15.0400     6.3380 hc         1 8AE       0.054450
     26 H12         15.0340    16.2980    11.9360 ha         1 8AE       0.122000
     27 H13         18.5180    16.4110    12.6440 hn         1 8AE       0.311500
     28 H14         16.7770    16.5960    12.6170 hn         1 8AE       0.311500
     29 H15         17.0410    13.8560     8.9570 ha         1 8AE       0.122000
     30 C1          17.5700    15.4100    11.1410 c          1 8AE       0.623700
@<TRIPOS>BOND
     1     1     2 ar  
     2     1    11 ar  
     3     1    15 1   
     4     2     4 ar  
     5     2    14 1   
     6     3     5 1   
     7     3    14 1   
     8     3    16 1   
     9     3    17 1   
    10     4     9 ar  
    11     4    18 1   
    12     5     6 1   
    13     5     8 1   
    14     5    19 1   
    15     6     7 1   
    16     6    20 1   
    17     6    21 1   
    18     7     8 1   
    19     7    22 1   
    20     7    23 1   
    21     8    24 1   
    22     8    25 1   
    23     9    13 ar  
    24     9    26 1   
    25    10    27 1   
    26    10    28 1   
    27    10    30 1   
    28    11    13 ar  
    29    11    29 1   
    30    12    30 2   
    31    13    30 1   
@<TRIPOS>SUBSTRUCTURE
     1 8AE         1 TEMP              0 ****  ****    0 ROOT
