@<TRIPOS>MOLECULE
8AE
   30    31     1     0     0
SMALL
abcg2


@<TRIPOS>ATOM
      1 C4          14.8690    14.0130     8.7970 ca         1 8AE      -0.189500
      2 C5          13.6800    14.5520     9.2970 ca         1 8AE       0.172100
      3 C6          11.3090    14.7050     9.1300 c3         1 8AE       0.172600
      4 C11         13.7330    15.4200    10.3870 ca         1 8AE      -0.189500
      5 C7          10.2120    14.1210     8.2740 cy         1 8AE      -0.084700
      6 C8           8.8640    14.8370     8.5200 cy         1 8AE      -0.085400
      7 C9           9.1110    15.6790     7.2530 cy         1 8AE      -0.095400
      8 C10         10.1860    14.6600     6.8270 cy         1 8AE      -0.085400
      9 C12         14.9560    15.7250    10.9660 ca         1 8AE      -0.031000
     10 N1          17.5040    16.0000    12.3070 nt         1 8AE      -0.606000
     11 C3          16.0770    14.3350     9.3780 ca         1 8AE      -0.031000
     12 O1          18.5070    15.2950    10.4210 o          1 8AE      -0.609100
     13 C2          16.1440    15.1860    10.4840 ca         1 8AE      -0.196600
     14 O2          12.5510    14.1880     8.6740 os         1 8AE      -0.343100
     15 H1          14.8330    13.3420     7.9480 ha         1 8AE       0.125000
     16 H2          11.3090    15.8010     9.0660 h1         1 8AE       0.037200
     17 H3          11.1480    14.4350    10.1810 h1         1 8AE       0.037200
     18 H4          12.8390    15.8720    10.7950 ha         1 8AE       0.125000
     19 H5          10.2010    13.0340     8.3820 hc         1 8AE       0.072700
     20 H6           8.7480    15.3690     9.4660 hc         1 8AE       0.054450
     21 H7           8.0210    14.1550     8.4040 hc         1 8AE       0.054450
     22 H8           9.5340    16.6570     7.4840 hc         1 8AE       0.049700
     23 H9           8.2670    15.8250     6.5790 hc         1 8AE       0.049700
     24 H10          9.7920    13.9180     6.1310 hc         1 8AE       0.054450
     25 H11         11.1210    15.0480     6.4190 hc         1 8AE       0.054450
     26 H12         14.9540    16.4170    11.7980 ha         1 8AE       0.122000
     27 H13         18.3900    16.2010    12.7420 hn         1 8AE       0.311500
     28 H14         16.6940    16.0300    12.9000 hn         1 8AE       0.311500
     29 H15         16.9860    13.9100     8.9730 ha         1 8AE       0.122000
     30 C1          17.4830    15.4940    11.0620 c          1 8AE       0.623700
@<TRIPOS>BOND
     1     1     2 ar  
     2     1    11 ar  
     3     1    15 1   
     4     2     4 ar  
     5     2    14 1   
     6     3     5 1   
     7     3    14 1   
     8     3    16 1   
     9     3    17 1   
    10     4     9 ar  
    11     4    18 1   
    12     5     6 1   
    13     5     8 1   
    14     5    19 1   
    15     6     7 1   
    16     6    20 1   
    17     6    21 1   
    18     7     8 1   
    19     7    22 1   
    20     7    23 1   
    21     8    24 1   
    22     8    25 1   
    23     9    13 ar  
    24     9    26 1   
    25    10    27 1   
    26    10    28 1   
    27    10    30 1   
    28    11    13 ar  
    29    11    29 1   
    30    12    30 2   
    31    13    30 1   
@<TRIPOS>SUBSTRUCTURE
     1 8AE         1 TEMP              0 ****  ****    0 ROOT
