@<TRIPOS>MOLECULE
8AF
   59    64     1     0     0
SMALL
abcg2


@<TRIPOS>ATOM
      1 P           24.5860    60.7940   -25.0710 p3         1 8AF       0.268300
      2 OP1         25.2280    62.1440   -24.3980 oh         1 8AF      -0.567100
      3 O5          23.0840    61.1270   -24.5210 os         1 8AF      -0.328100
      4 C5          22.1100    60.1010   -24.3270 c3         1 8AF       0.205600
      5 C4          21.0060    60.2060   -25.3570 c5         1 8AF       0.095300
      6 C3          19.7510    59.3830   -24.9990 c5         1 8AF       0.147300
      7 O3          18.5840    60.1950   -24.8870 oh         1 8AF      -0.712000
      8 C2          19.5680    58.4170   -26.1700 c5         1 8AF      -0.125400
      9 C1          20.5060    58.9350   -27.2680 c5         1 8AF       0.319300
     10 O4          21.4850    59.7380   -26.6330 os         1 8AF      -0.466000
     11 N9          21.1890    57.9140   -28.0450 na         1 8AF      -0.250500
     12 C11         22.2880    57.1740   -27.6730 cc         1 8AF       0.209000
     13 C10         22.6950    56.4550   -28.7630 cd         1 8AF       0.156500
     14 N7          21.8590    56.7260   -29.8440 nd         1 8AF      -0.635000
     15 C8          20.9850    57.5910   -29.3970 cc         1 8AF       0.697400
     16 N3          22.9200    57.0980   -26.4690 na         1 8AF      -0.912200
     17 C22         24.0550    56.3260   -26.4160 cc         1 8AF       0.896100
     18 N2          24.7370    56.3500   -25.2550 nv         1 8AF      -1.079200
     19 N1          24.4750    55.5870   -27.4170 nd         1 8AF      -0.782100
     20 C6          23.8430    55.5900   -28.6520 c          1 8AF       0.651000
     21 O6          24.2710    54.8870   -29.5800 o          1 8AF      -0.537100
     22 OP2         24.9430    59.6130   -23.9780 oh         1 8AF      -0.567100
     23 N4          19.9260    58.1130   -30.0780 nu         1 8AF      -0.966900
     24 C12         19.7210    58.0770   -31.4730 ca         1 8AF       0.307000
     25 C13         18.3980    58.0920   -31.9250 ca         1 8AF      -0.151000
     26 C14         18.1060    58.1010   -33.2860 ca         1 8AF      -0.075000
     27 C15         19.1450    58.0710   -34.2000 ca         1 8AF      -0.103300
     28 C16         20.4740    58.0610   -33.7440 cp         1 8AF      -0.014000
     29 C17         20.7770    58.0690   -32.3870 ca         1 8AF      -0.091000
     30 C18         19.1100    58.0990   -35.7090 c5         1 8AF       0.013200
     31 C19         20.5740    58.0580   -36.0750 ca         1 8AF      -0.084300
     32 C20         21.3630    58.0500   -34.9110 cp         1 8AF      -0.044000
     33 C23         21.1680    58.0070   -37.3260 ca         1 8AF      -0.101000
     34 C21         22.5600    57.9650   -37.4110 ca         1 8AF      -0.105000
     35 C7          23.3450    57.9720   -36.2560 ca         1 8AF      -0.114000
     36 C9          22.7520    58.0110   -34.9960 ca         1 8AF      -0.075000
     37 H1          26.1410    62.2730   -24.6940 ho         1 8AF       0.468500
     38 H2          21.6970    60.2000   -23.3220 h1         1 8AF       0.045700
     39 H3          22.5880    59.1210   -24.3740 h1         1 8AF       0.045700
     40 H4          20.7400    61.2610   -25.4710 h1         1 8AF       0.090700
     41 H5          19.9090    58.8410   -24.0630 h1         1 8AF       0.052700
     42 H6          18.7110    60.8160   -24.1570 ho         1 8AF       0.515000
     43 H7          18.5340    58.4550   -26.5090 hc         1 8AF       0.087200
     44 H8          19.8010    57.3890   -25.9020 hc         1 8AF       0.087200
     45 H9          19.9430    59.5310   -27.9880 h2         1 8AF       0.071700
     46 H10         22.6870    57.7200   -25.7120 hn         1 8AF       0.500000
     47 H11         25.5620    55.7830   -25.1680 hn         1 8AF       0.511500
     48 H12         24.4750    56.9560   -24.4950 hn         1 8AF       0.511500
     49 H13         25.8020    59.2030   -24.1520 ho         1 8AF       0.468500
     50 H14         19.2850    58.6950   -29.5650 hn         1 8AF       0.493000
     51 H15         17.5970    58.1090   -31.1960 ha         1 8AF       0.110000
     52 H16         17.0730    58.1190   -33.6100 ha         1 8AF       0.116000
     53 H17         21.7990    58.0660   -32.0410 ha         1 8AF       0.145000
     54 H18         18.6310    59.0150   -36.0720 hc         1 8AF       0.068700
     55 H19         18.5520    57.2640   -36.1400 hc         1 8AF       0.068700
     56 H20         20.5640    58.0080   -38.2250 ha         1 8AF       0.113000
     57 H21         23.0380    57.9240   -38.3810 ha         1 8AF       0.111000
     58 H22         24.4230    57.9400   -36.3430 ha         1 8AF       0.114000
     59 H23         23.3630    58.0050   -34.1010 ha         1 8AF       0.124000
@<TRIPOS>BOND
     1     1     2 1   
     2     1     3 1   
     3     1    22 1   
     4     2    37 1   
     5     3     4 1   
     6     4     5 1   
     7     4    38 1   
     8     4    39 1   
     9     5     6 1   
    10     5    10 1   
    11     5    40 1   
    12     6     7 1   
    13     6     8 1   
    14     6    41 1   
    15     7    42 1   
    16     8     9 1   
    17     8    43 1   
    18     8    44 1   
    19     9    10 1   
    20     9    11 1   
    21     9    45 1   
    22    11    12 1   
    23    11    15 1   
    24    12    13 2   
    25    12    16 1   
    26    13    14 1   
    27    13    20 1   
    28    14    15 2   
    29    15    23 1   
    30    16    17 1   
    31    16    46 1   
    32    17    18 1   
    33    17    19 2   
    34    18    47 1   
    35    18    48 1   
    36    19    20 1   
    37    20    21 2   
    38    22    49 1   
    39    23    24 1   
    40    23    50 1   
    41    24    25 ar  
    42    24    29 ar  
    43    25    26 ar  
    44    25    51 1   
    45    26    27 ar  
    46    26    52 1   
    47    27    28 ar  
    48    27    30 1   
    49    28    29 ar  
    50    28    32 1   
    51    29    53 1   
    52    30    31 1   
    53    30    54 1   
    54    30    55 1   
    55    31    32 ar  
    56    31    33 ar  
    57    32    36 ar  
    58    33    34 ar  
    59    33    56 1   
    60    34    35 ar  
    61    34    57 1   
    62    35    36 ar  
    63    35    58 1   
    64    36    59 1   
@<TRIPOS>SUBSTRUCTURE
     1 8AF         1 TEMP              0 ****  ****    0 ROOT
