@<TRIPOS>MOLECULE
8AF
   59    64     1     0     0
SMALL
No Charge or Current Charge


@<TRIPOS>ATOM
      1 P           24.1530    61.2450   -25.2160 p3         1 8AF       0.268300
      2 OP1         23.8930    62.7900   -25.7800 oh         1 8AF      -0.567100
      3 O5          23.0010    61.0580   -24.0280 os         1 8AF      -0.328100
      4 C5          22.0640    59.9650   -24.0470 c3         1 8AF       0.205600
      5 C4          21.0360    60.1740   -25.1980 c5         1 8AF       0.095300
      6 C3          19.6900    59.3880   -24.9860 c5         1 8AF       0.147300
      7 O3          18.5630    60.0530   -25.5730 oh         1 8AF      -0.712000
      8 C2          19.9980    58.0790   -25.7480 c5         1 8AF      -0.125400
      9 C1          20.6910    58.6810   -26.9890 c5         1 8AF       0.319300
     10 O4          21.5920    59.6630   -26.4470 os         1 8AF      -0.466000
     11 N9          21.4020    57.7860   -27.9020 na         1 8AF      -0.250500
     12 C11         22.2980    56.7970   -27.6240 cc         1 8AF       0.209000
     13 C10         22.6620    56.1490   -28.7530 cd         1 8AF       0.156500
     14 N7          21.9420    56.6940   -29.8140 nd         1 8AF      -0.635000
     15 C8          21.2210    57.6610   -29.2680 cc         1 8AF       0.697400
     16 N3          22.9150    56.5810   -26.3970 na         1 8AF      -0.912200
     17 C22         23.8000    55.5650   -26.3360 cc         1 8AF       0.896100
     18 N2          24.3440    55.3620   -25.1840 nv         1 8AF      -1.079200
     19 N1          24.1740    54.8650   -27.3540 nd         1 8AF      -0.782100
     20 C6          23.6730    55.0740   -28.6430 c          1 8AF       0.651000
     21 O6          24.0810    54.3910   -29.5730 o          1 8AF      -0.537100
     22 OP2         25.5790    61.3770   -24.3690 oh         1 8AF      -0.567100
     23 N4          20.3490    58.4100   -30.0000 nu         1 8AF      -0.966900
     24 C12         20.0260    58.4310   -31.3580 ca         1 8AF       0.307000
     25 C13         18.6900    58.7100   -31.7280 ca         1 8AF      -0.151000
     26 C14         18.3070    58.7610   -33.0850 ca         1 8AF      -0.075000
     27 C15         19.2930    58.5350   -34.0510 ca         1 8AF      -0.103300
     28 C16         20.6210    58.2690   -33.7130 cp         1 8AF      -0.014000
     29 C17         21.0020    58.2190   -32.3570 ca         1 8AF      -0.091000
     30 C18         19.2090    58.5250   -35.5830 c5         1 8AF       0.013200
     31 C19         20.6360    58.2280   -36.0610 ca         1 8AF      -0.084300
     32 C20         21.4290    58.0850   -34.9200 cp         1 8AF      -0.044000
     33 C23         21.1570    58.1000   -37.3550 ca         1 8AF      -0.101000
     34 C21         22.5320    57.8190   -37.4900 ca         1 8AF      -0.105000
     35 C7          23.3500    57.6710   -36.3450 ca         1 8AF      -0.114000
     36 C9          22.8040    57.8040   -35.0510 ca         1 8AF      -0.075000
     37 H1          23.7330    62.7190   -26.7460 ho         1 8AF       0.468500
     38 H2          21.5220    59.9420   -23.0940 h1         1 8AF       0.045700
     39 H3          22.5790    59.0030   -24.1630 h1         1 8AF       0.045700
     40 H4          20.8440    61.2510   -25.2990 h1         1 8AF       0.090700
     41 H5          19.4930    59.1880   -23.9220 h1         1 8AF       0.052700
     42 H6          18.2730    60.7550   -24.9440 ho         1 8AF       0.515000
     43 H7          19.0960    57.5130   -26.0050 hc         1 8AF       0.087200
     44 H8          20.6500    57.4160   -25.1710 hc         1 8AF       0.087200
     45 H9          19.9360    59.2020   -27.5900 h2         1 8AF       0.071700
     46 H10         22.6970    57.1090   -25.5690 hn         1 8AF       0.500000
     47 H11         25.1150    54.7150   -25.2630 hn         1 8AF       0.511500
     48 H12         24.5690    56.2030   -24.6750 hn         1 8AF       0.511500
     49 H13         26.1920    60.6960   -24.7210 ho         1 8AF       0.468500
     50 H14         19.6860    58.9020   -29.4130 hn         1 8AF       0.493000
     51 H15         17.9410    58.8830   -30.9610 ha         1 8AF       0.110000
     52 H16         17.2790    58.9720   -33.3720 ha         1 8AF       0.116000
     53 H17         22.0360    58.0310   -32.0910 ha         1 8AF       0.145000
     54 H18         18.8520    59.4870   -35.9690 hc         1 8AF       0.068700
     55 H19         18.5040    57.7650   -35.9390 hc         1 8AF       0.068700
     56 H20         20.5190    58.2150   -38.2290 ha         1 8AF       0.113000
     57 H21         22.9670    57.7140   -38.4820 ha         1 8AF       0.111000
     58 H22         24.4100    57.4540   -36.4630 ha         1 8AF       0.114000
     59 H23         23.4330    57.6900   -34.1710 ha         1 8AF       0.124000
@<TRIPOS>BOND
     1     1     2 1   
     2     1     3 1   
     3     1    22 1   
     4     2    37 1   
     5     3     4 1   
     6     4     5 1   
     7     4    38 1   
     8     4    39 1   
     9     5     6 1   
    10     5    10 1   
    11     5    40 1   
    12     6     7 1   
    13     6     8 1   
    14     6    41 1   
    15     7    42 1   
    16     8     9 1   
    17     8    43 1   
    18     8    44 1   
    19     9    10 1   
    20     9    11 1   
    21     9    45 1   
    22    11    12 1   
    23    11    15 1   
    24    12    13 2   
    25    12    16 1   
    26    13    14 1   
    27    13    20 1   
    28    14    15 2   
    29    15    23 1   
    30    16    17 1   
    31    16    46 1   
    32    17    18 1   
    33    17    19 2   
    34    18    47 1   
    35    18    48 1   
    36    19    20 1   
    37    20    21 2   
    38    22    49 1   
    39    23    24 1   
    40    23    50 1   
    41    24    25 ar  
    42    24    29 ar  
    43    25    26 ar  
    44    25    51 1   
    45    26    27 ar  
    46    26    52 1   
    47    27    28 ar  
    48    27    30 1   
    49    28    29 ar  
    50    28    32 1   
    51    29    53 1   
    52    30    31 1   
    53    30    54 1   
    54    30    55 1   
    55    31    32 ar  
    56    31    33 ar  
    57    32    36 ar  
    58    33    34 ar  
    59    33    56 1   
    60    34    35 ar  
    61    34    57 1   
    62    35    36 ar  
    63    35    58 1   
    64    36    59 1   
@<TRIPOS>SUBSTRUCTURE
     1 8AF         1 TEMP              0 ****  ****    0 ROOT
