@<TRIPOS>MOLECULE
8AI
   40    43     1     0     0
SMALL
No Charge or Current Charge


@<TRIPOS>ATOM
      1 CAJ        -11.6670     7.5350     6.2890 c5         1 8AI      -0.016700
      2 CAK        -11.5640     6.5480     7.5000 c5         1 8AI      -0.077400
      3 CAL        -10.0270     6.3650     7.6530 c5         1 8AI      -0.042700
      4 CAH         -9.5100     6.6700     6.2800 cc         1 8AI       0.106300
      5 CAI        -10.4090     7.3080     5.4720 cd         1 8AI      -0.277800
      6 CAM        -10.0900     7.6340     4.1380 cd         1 8AI       0.561900
      7 NAN        -10.9460     8.2280     3.3830 n2         1 8AI      -0.800100
      8 CAO         -8.8140     7.2760     3.6560 cd         1 8AI      -0.277800
      9 CAS         -8.1800     7.4350     2.2870 c5         1 8AI      -0.016700
     10 CAR         -6.6430     7.2190     2.5040 c5         1 8AI      -0.077400
     11 CAQ         -6.6020     6.3350     3.7830 c5         1 8AI      -0.042700
     12 CAP         -7.9020     6.6510     4.4580 cc         1 8AI       0.106300
     13 NAG         -8.2180     6.3430     5.8020 na         1 8AI      -0.489200
     14 CAF         -7.2250     5.6600     6.6750 c3         1 8AI       0.272100
     15 CAE         -7.0990     4.1540     6.4320 ca         1 8AI      -0.134300
     16 CAD         -8.1870     3.3860     5.9560 ca         1 8AI      -0.074500
     17 CAC         -8.0400     2.0040     5.7430 ca         1 8AI      -0.149500
     18 CAB         -6.8120     1.3820     6.0060 ca         1 8AI       0.176000
     19 FAA         -6.6730     0.0540     5.8010 f          1 8AI      -0.176000
     20 CAU         -5.7270     2.1310     6.4830 ca         1 8AI      -0.149500
     21 CAT         -5.8700     3.5140     6.6970 ca         1 8AI      -0.074500
     22 H1         -11.7200     8.5720     6.6410 hc         1 8AI       0.056450
     23 H2         -12.0430     6.9310     8.4090 hc         1 8AI       0.047950
     24 H3          -9.7770     5.3510     7.9840 hc         1 8AI       0.056200
     25 H4         -11.8050     8.3940     3.9210 hn         1 8AI       0.364400
     26 H6          -8.3820     8.4170     1.8420 hc         1 8AI       0.056450
     27 H7          -8.5790     6.6910     1.5880 hc         1 8AI       0.056450
     28 H8          -6.1510     6.7520     1.6440 hc         1 8AI       0.047950
     29 H9          -6.1450     8.1790     2.6860 hc         1 8AI       0.047950
     30 H10         -6.5500     5.2690     3.5330 hc         1 8AI       0.056200
     31 H11         -5.7280     6.5720     4.3990 hc         1 8AI       0.056200
     32 H12         -6.2450     6.1330     6.5300 h1         1 8AI       0.065700
     33 H13         -7.4790     5.8240     7.7290 h1         1 8AI       0.065700
     34 H14         -9.1470     3.8540     5.7500 ha         1 8AI       0.123000
     35 H15         -8.8770     1.4160     5.3760 ha         1 8AI       0.135000
     36 H16         -4.7780     1.6420     6.6850 ha         1 8AI       0.135000
     37 H17         -5.0220     4.0880     7.0670 ha         1 8AI       0.123000
     38 H18        -12.5840     7.3570     5.7150 hc         1 8AI       0.056450
     39 H19        -12.0410     5.5910     7.2560 hc         1 8AI       0.047950
     40 H20         -9.6120     7.0660     8.3850 hc         1 8AI       0.056200
@<TRIPOS>BOND
     1     1     2 1   
     2     1     5 1   
     3     1    22 1   
     4     1    38 1   
     5     2     3 1   
     6     2    23 1   
     7     2    39 1   
     8     3     4 1   
     9     3    24 1   
    10     3    40 1   
    11     4     5 2   
    12     4    13 1   
    13     5     6 1   
    14     6     7 2   
    15     6     8 1   
    16     7    25 1   
    17     8     9 1   
    18     8    12 2   
    19     9    10 1   
    20     9    26 1   
    21     9    27 1   
    22    10    11 1   
    23    10    28 1   
    24    10    29 1   
    25    11    12 1   
    26    11    30 1   
    27    11    31 1   
    28    12    13 1   
    29    13    14 1   
    30    14    15 1   
    31    14    32 1   
    32    14    33 1   
    33    15    16 ar  
    34    15    21 ar  
    35    16    17 ar  
    36    16    34 1   
    37    17    18 ar  
    38    17    35 1   
    39    18    19 1   
    40    18    20 ar  
    41    20    21 ar  
    42    20    36 1   
    43    21    37 1   
@<TRIPOS>SUBSTRUCTURE
     1 8AI         1 TEMP              0 ****  ****    0 ROOT
