@<TRIPOS>MOLECULE
8AI
   40    43     1     0     0
SMALL
bcc


@<TRIPOS>ATOM
      1 CAJ        -11.5010     7.2240     6.4120 c5         1 8AI      -0.016700
      2 CAK        -11.1490     6.3160     7.6040 c5         1 8AI      -0.077400
      3 CAL         -9.6140     6.2070     7.6170 c5         1 8AI      -0.042700
      4 CAH         -9.2570     6.5540     6.2030 cc         1 8AI       0.106300
      5 CAI        -10.2910     7.1140     5.5300 cd         1 8AI      -0.277800
      6 CAM        -10.1750     7.5670     4.1610 cd         1 8AI       0.561900
      7 NAN        -11.1020     8.1080     3.4380 n2         1 8AI      -0.800100
      8 CAO         -8.8510     7.3420     3.6320 cd         1 8AI      -0.277800
      9 CAS         -8.3960     7.6310     2.2340 c5         1 8AI      -0.016700
     10 CAR         -6.8690     7.4620     2.3140 c5         1 8AI      -0.077400
     11 CAQ         -6.5920     6.6090     3.5650 c5         1 8AI      -0.042700
     12 CAP         -7.8530     6.7800     4.3580 cc         1 8AI       0.106300
     13 NAG         -8.0180     6.3810     5.6560 na         1 8AI      -0.489200
     14 CAF         -6.9800     5.6890     6.3930 c3         1 8AI       0.272100
     15 CAE         -7.1140     4.1840     6.3730 ca         1 8AI      -0.134300
     16 CAD         -7.8090     3.5100     5.3750 ca         1 8AI      -0.092500
     17 CAC         -7.8760     2.1230     5.3650 ca         1 8AI      -0.167500
     18 CAB         -7.2380     1.4200     6.3660 ca         1 8AI       0.140900
     19 FAA         -7.2950     0.0780     6.3620 f          1 8AI      -0.140900
     20 CAU         -6.5450     2.0560     7.3790 ca         1 8AI      -0.167500
     21 CAT         -6.4920     3.4410     7.3730 ca         1 8AI      -0.092500
     22 H1         -11.6630     8.2610     6.7230 hc         1 8AI       0.056450
     23 H2         -11.5440     6.6880     8.5470 hc         1 8AI       0.047950
     24 H3          -9.2730     5.2150     7.9180 hc         1 8AI       0.056200
     25 H4         -11.9600     8.1880     3.9750 hn         1 8AI       0.364400
     26 H6          -8.6810     8.6310     1.8980 hc         1 8AI       0.056450
     27 H7          -8.8520     6.9300     1.5280 hc         1 8AI       0.056450
     28 H8          -6.4460     7.0170     1.4150 hc         1 8AI       0.047950
     29 H9          -6.4020     8.4400     2.4400 hc         1 8AI       0.047950
     30 H10         -6.4360     5.5540     3.3200 hc         1 8AI       0.056200
     31 H11         -5.6990     6.9450     4.0940 hc         1 8AI       0.056200
     32 H12         -6.0140     5.9780     5.9800 h1         1 8AI       0.065700
     33 H13         -6.9790     6.0450     7.4240 h1         1 8AI       0.065700
     34 H14         -8.3140     4.0560     4.5880 ha         1 8AI       0.141000
     35 H15         -8.4180     1.6010     4.5860 ha         1 8AI       0.153000
     36 H16         -6.0620     1.4840     8.1600 ha         1 8AI       0.153000
     37 H17         -5.9580     3.9510     8.1670 ha         1 8AI       0.141000
     38 H18        -12.4200     6.9040     5.9140 hc         1 8AI       0.056450
     39 H19        -11.5740     5.3250     7.4410 hc         1 8AI       0.047950
     40 H20         -9.1560     6.9230     8.3080 hc         1 8AI       0.056200
@<TRIPOS>BOND
     1     1     2 1   
     2     1     5 1   
     3     1    22 1   
     4     1    38 1   
     5     2     3 1   
     6     2    23 1   
     7     2    39 1   
     8     3     4 1   
     9     3    24 1   
    10     3    40 1   
    11     4     5 2   
    12     4    13 1   
    13     5     6 1   
    14     6     7 2   
    15     6     8 1   
    16     7    25 1   
    17     8     9 1   
    18     8    12 2   
    19     9    10 1   
    20     9    26 1   
    21     9    27 1   
    22    10    11 1   
    23    10    28 1   
    24    10    29 1   
    25    11    12 1   
    26    11    30 1   
    27    11    31 1   
    28    12    13 1   
    29    13    14 1   
    30    14    15 1   
    31    14    32 1   
    32    14    33 1   
    33    15    16 ar  
    34    15    21 ar  
    35    16    17 ar  
    36    16    34 1   
    37    17    18 ar  
    38    17    35 1   
    39    18    19 1   
    40    18    20 ar  
    41    20    21 ar  
    42    20    36 1   
    43    21    37 1   
@<TRIPOS>SUBSTRUCTURE
     1 8AI         1 TEMP              0 ****  ****    0 ROOT
