@<TRIPOS>MOLECULE
8AJ
   44    47     1     0     0
SMALL
bcc


@<TRIPOS>ATOM
      1 C10          0.8800     2.3440    -0.2070 ca         1 8AJ      -0.095000
      2 C13         -0.4880     2.5060    -0.0310 ca         1 8AJ       0.013400
      3 C15         -3.8780    -0.2740    -0.8850 ca         1 8AJ      -0.111500
      4 C17          6.1000     0.4140    -0.3930 c3         1 8AJ       0.148100
      5 N01          1.0740    -1.3530    -0.2710 na         1 8AJ      -0.099200
      6 C01          0.5840    -0.0480    -0.2160 ca         1 8AJ       0.044700
      7 C02          0.2480    -2.4420    -0.1320 cc         1 8AJ      -0.053300
      8 C03          2.3240    -1.8970    -0.4530 cc         1 8AJ       0.342800
      9 C04         -0.8090     0.1160    -0.0560 ca         1 8AJ      -0.049000
     10 C05          1.4110     1.0740    -0.2940 ca         1 8AJ      -0.143000
     11 C06         -1.1520    -2.2780     0.0240 cc         1 8AJ      -0.080000
     12 N02          0.9410    -3.5470    -0.2160 nd         1 8AJ      -0.082000
     13 N03          2.2240    -3.1970    -0.4150 nd         1 8AJ      -0.369700
     14 C07          3.5990    -1.1710    -0.6580 c3         1 8AJ      -0.090700
     15 C08         -1.6860    -1.0380     0.0370 cd         1 8AJ      -0.011000
     16 C09         -1.3220     1.4150     0.0470 ca         1 8AJ      -0.090000
     17 C11          4.1410    -0.5330     0.6320 c3         1 8AJ       0.159800
     18 C12         -3.1520    -0.8730     0.1450 ca         1 8AJ      -0.053000
     19 N            4.8920     0.6750     0.3620 n3         1 8AJ      -0.727600
     20 C14         -3.8300    -1.3550     1.2620 ca         1 8AJ      -0.111500
     21 CL          -1.1490     4.0980     0.0980 cl         1 8AJ      -0.097400
     22 C16          5.1830     1.3920     1.5850 c3         1 8AJ       0.148100
     23 C18         -5.2110    -1.2390     1.3490 ca         1 8AJ      -0.128000
     24 C19         -5.2580    -0.1620    -0.7980 ca         1 8AJ      -0.128000
     25 C           -5.9280    -0.6420     0.3210 ca         1 8AJ      -0.118000
     26 H1           1.5360     3.2010    -0.2680 ha         1 8AJ       0.156000
     27 H2          -3.3640     0.0950    -1.7640 ha         1 8AJ       0.137500
     28 H3           5.8670    -0.0600    -1.3460 h1         1 8AJ       0.033700
     29 H4           6.6090     1.3530    -0.6130 h1         1 8AJ       0.033700
     30 H5           6.8100    -0.2370     0.1420 h1         1 8AJ       0.033700
     31 H6           2.4800     0.9960    -0.4110 ha         1 8AJ       0.174000
     32 H7          -1.7660    -3.1660     0.0900 ha         1 8AJ       0.170000
     33 H8           4.3080    -1.8980    -1.0550 hc         1 8AJ       0.074700
     34 H9          -2.3820     1.5590     0.1980 ha         1 8AJ       0.162000
     35 H10          3.3150    -0.2650     1.2960 h1         1 8AJ       0.043200
     36 H11         -3.2750    -1.8150     2.0690 ha         1 8AJ       0.137500
     37 H12          5.8080     0.8200     2.2880 h1         1 8AJ       0.033700
     38 H13          5.7060     2.3210     1.3560 h1         1 8AJ       0.033700
     39 H14          4.2550     1.6510     2.0970 h1         1 8AJ       0.033700
     40 H15         -5.7260    -1.6150     2.2240 ha         1 8AJ       0.135000
     41 H16         -5.8090     0.2980    -1.6070 ha         1 8AJ       0.135000
     42 H17         -7.0040    -0.5510     0.3900 ha         1 8AJ       0.134000
     43 H18          3.4780    -0.4120    -1.4330 hc         1 8AJ       0.074700
     44 H19          4.7350    -1.2820     1.1810 h1         1 8AJ       0.043200
@<TRIPOS>BOND
     1     1     2 ar  
     2     1    10 ar  
     3     1    26 1   
     4     2    16 ar  
     5     2    21 1   
     6     3    18 ar  
     7     3    24 ar  
     8     3    27 1   
     9     4    19 1   
    10     4    28 1   
    11     4    29 1   
    12     4    30 1   
    13     5     6 1   
    14     5     7 1   
    15     5     8 1   
    16     6     9 ar  
    17     6    10 ar  
    18     7    11 1   
    19     7    12 2   
    20     8    13 2   
    21     8    14 1   
    22     9    15 1   
    23     9    16 ar  
    24    10    31 1   
    25    11    15 2   
    26    11    32 1   
    27    12    13 1   
    28    14    17 1   
    29    14    33 1   
    30    14    43 1   
    31    15    18 1   
    32    16    34 1   
    33    17    19 1   
    34    17    35 1   
    35    17    44 1   
    36    18    20 ar  
    37    19    22 1   
    38    20    23 ar  
    39    20    36 1   
    40    22    37 1   
    41    22    38 1   
    42    22    39 1   
    43    23    25 ar  
    44    23    40 1   
    45    24    25 ar  
    46    24    41 1   
    47    25    42 1   
@<TRIPOS>SUBSTRUCTURE
     1 8AJ         1 TEMP              0 ****  ****    0 ROOT
