@<TRIPOS>MOLECULE
8AJ
   44    47     1     0     0
SMALL
No Charge or Current Charge


@<TRIPOS>ATOM
      1 C10          0.6080     2.5550    -0.1320 ca         1 8AJ      -0.077000
      2 C13         -0.7820     2.6720    -0.1030 ca         1 8AJ       0.105000
      3 C15         -3.9980    -0.1850    -0.8770 ca         1 8AJ      -0.093500
      4 C17          6.4170     0.0410    -0.6810 c3         1 8AJ       0.148100
      5 N01          0.9710    -1.1890     0.1110 na         1 8AJ       0.002200
      6 C01          0.4200     0.1090    -0.0110 ca         1 8AJ      -0.006000
      7 C02          0.2030    -2.2770     0.4210 cc         1 8AJ      -0.104000
      8 C03          2.2770    -1.6470    -0.0110 cc         1 8AJ       0.342800
      9 C04         -1.0020     0.2310     0.0080 ca         1 8AJ      -0.049000
     10 C05          1.2060     1.2890    -0.0640 ca         1 8AJ      -0.125000
     11 C06         -1.2220    -2.1940     0.4600 cc         1 8AJ      -0.061000
     12 N02          0.9780    -3.3290     0.5760 nd         1 8AJ      -0.082000
     13 N03          2.2720    -2.9380     0.3030 nd         1 8AJ      -0.369700
     14 C07          3.5140    -0.9430    -0.5020 c3         1 8AJ      -0.090700
     15 C08         -1.8430    -0.9950     0.1640 cd         1 8AJ      -0.011000
     16 C09         -1.5790     1.5260    -0.0110 ca         1 8AJ      -0.072000
     17 C11          4.3520    -0.3470     0.6500 c3         1 8AJ       0.159800
     18 C12         -3.3270    -0.9470     0.1070 ca         1 8AJ      -0.053000
     19 N            5.3870     0.6240     0.2130 n3         1 8AJ      -0.727600
     20 C14         -4.1050    -1.7380     0.9840 ca         1 8AJ      -0.093500
     21 Cl          -1.5310     4.2640    -0.1300 cl         1 8AJ      -0.189000
     22 C16          5.9930     1.3440     1.3560 c3         1 8AJ       0.148100
     23 C18         -5.5090    -1.7260     0.9120 ca         1 8AJ      -0.110000
     24 C19         -5.4010    -0.1740    -0.9510 ca         1 8AJ      -0.110000
     25 C           -6.1590    -0.9400    -0.0520 ca         1 8AJ      -0.100000
     26 H1           1.2260     3.4490    -0.1750 ha         1 8AJ       0.138000
     27 H2          -3.4310     0.3790    -1.6140 ha         1 8AJ       0.119500
     28 H3           5.9680    -0.3580    -1.5990 h1         1 8AJ       0.033700
     29 H4           7.1490     0.8040    -0.9780 h1         1 8AJ       0.033700
     30 H5           6.9580    -0.7730    -0.1780 h1         1 8AJ       0.033700
     31 H6           2.2850     1.2700    -0.0240 ha         1 8AJ       0.156000
     32 H7          -1.7860    -3.1040     0.6370 ha         1 8AJ       0.152000
     33 H8           4.1330    -1.6670    -1.0420 hc         1 8AJ       0.074700
     34 H9          -2.6480     1.6720     0.0900 ha         1 8AJ       0.144000
     35 H10          3.6630     0.1520     1.3460 h1         1 8AJ       0.043200
     36 H11         -3.6270    -2.3450     1.7490 ha         1 8AJ       0.119500
     37 H12          6.5420     0.6520     2.0090 h1         1 8AJ       0.033700
     38 H13          6.6930     2.1130     1.0040 h1         1 8AJ       0.033700
     39 H14          5.2200     1.8430     1.9560 h1         1 8AJ       0.033700
     40 H15         -6.0930    -2.3270     1.6060 ha         1 8AJ       0.117000
     41 H16         -5.9010     0.4190    -1.7130 ha         1 8AJ       0.117000
     42 H17         -7.2450    -0.9340    -0.1090 ha         1 8AJ       0.116000
     43 H18          3.2580    -0.1810    -1.2450 hc         1 8AJ       0.074700
     44 H19          4.8150    -1.1710     1.2100 h1         1 8AJ       0.043200
@<TRIPOS>BOND
     1     1     2 ar  
     2     1    10 ar  
     3     1    26 1   
     4     2    16 ar  
     5     2    21 1   
     6     3    18 ar  
     7     3    24 ar  
     8     3    27 1   
     9     4    19 1   
    10     4    28 1   
    11     4    29 1   
    12     4    30 1   
    13     5     6 1   
    14     5     7 1   
    15     5     8 1   
    16     6     9 ar  
    17     6    10 ar  
    18     7    11 1   
    19     7    12 2   
    20     8    13 2   
    21     8    14 1   
    22     9    15 1   
    23     9    16 ar  
    24    10    31 1   
    25    11    15 2   
    26    11    32 1   
    27    12    13 1   
    28    14    17 1   
    29    14    33 1   
    30    14    43 1   
    31    15    18 1   
    32    16    34 1   
    33    17    19 1   
    34    17    35 1   
    35    17    44 1   
    36    18    20 ar  
    37    19    22 1   
    38    20    23 ar  
    39    20    36 1   
    40    22    37 1   
    41    22    38 1   
    42    22    39 1   
    43    23    25 ar  
    44    23    40 1   
    45    24    25 ar  
    46    24    41 1   
    47    25    42 1   
@<TRIPOS>SUBSTRUCTURE
     1 8AJ         1 TEMP              0 ****  ****    0 ROOT
