@<TRIPOS>MOLECULE
8AK
   31    32     1     0     0
SMALL
No Charge or Current Charge


@<TRIPOS>ATOM
      1 C10          1.5110     4.5030   -10.5060 cc         1 8AK       0.223500
      2 C13          0.3600     6.6570   -13.2770 c3         1 8AK      -0.135400
      3 C01         -1.6380     2.5000    -7.3270 c3         1 8AK      -0.103600
      4 C02         -0.1100     2.6720    -7.4970 c3         1 8AK       0.120700
      5 C03          0.5880     2.7380    -6.1190 c3         1 8AK      -0.103600
      6 N04          0.2660     3.8020    -8.4040 n          1 8AK      -0.380800
      7 C05         -0.4960     5.0530    -8.2520 cx         1 8AK       0.041700
      8 C06         -0.4680     5.9000    -6.9970 cx         1 8AK      -0.130900
      9 C07          0.1350     6.4300    -8.2700 cx         1 8AK      -0.130900
     10 C08          1.3960     3.6440    -9.2640 c          1 8AK       0.531600
     11 O09          2.2530     2.8070    -8.9860 o          1 8AK      -0.567100
     12 C11          0.4500     5.2170   -11.1210 cc         1 8AK      -0.229000
     13 C12          0.9880     5.7990   -12.2170 cd         1 8AK       0.180300
     14 O14          2.3080     5.4650   -12.3150 os         1 8AK      -0.070700
     15 N15          2.6390     4.6030   -11.2100 nd         1 8AK      -0.315300
     16 H1           0.2870     6.1140   -14.2260 hc         1 8AK       0.063033
     17 H2          -0.6510     6.9660   -12.9860 hc         1 8AK       0.063033
     18 H3           0.9530     7.5630   -13.4480 hc         1 8AK       0.063033
     19 H4          -1.8590     1.5770    -6.7770 hc         1 8AK       0.042533
     20 H5          -2.0790     3.3360    -6.7720 hc         1 8AK       0.042533
     21 H6          -2.1280     2.4340    -8.3060 hc         1 8AK       0.042533
     22 H7           0.2380     1.7480    -7.9780 h1         1 8AK       0.071700
     23 H8           0.4670     1.7860    -5.5890 hc         1 8AK       0.042533
     24 H9           1.6620     2.9270    -6.2330 hc         1 8AK       0.042533
     25 H10          0.1610     3.5240    -5.4880 hc         1 8AK       0.042533
     26 H11         -1.4610     4.9270    -8.7450 h1         1 8AK       0.077700
     27 H12         -1.4080     6.3310    -6.6610 hc         1 8AK       0.080700
     28 H13          0.2290     5.6530    -6.2030 hc         1 8AK       0.080700
     29 H14          1.2180     6.5000    -8.3180 hc         1 8AK       0.080700
     30 H15         -0.3970     7.2220    -8.7920 hc         1 8AK       0.080700
     31 H16         -0.5870     5.2570   -10.8170 ha         1 8AK       0.154000
@<TRIPOS>BOND
     1     1    10 1   
     2     1    12 1   
     3     1    15 2   
     4     2    13 1   
     5     2    16 1   
     6     2    17 1   
     7     2    18 1   
     8     3     4 1   
     9     3    19 1   
    10     3    20 1   
    11     3    21 1   
    12     4     5 1   
    13     4     6 1   
    14     4    22 1   
    15     5    23 1   
    16     5    24 1   
    17     5    25 1   
    18     6     7 1   
    19     6    10 1   
    20     7     8 1   
    21     7     9 1   
    22     7    26 1   
    23     8     9 1   
    24     8    27 1   
    25     8    28 1   
    26     9    29 1   
    27     9    30 1   
    28    10    11 2   
    29    12    13 2   
    30    12    31 1   
    31    13    14 1   
    32    14    15 1   
@<TRIPOS>SUBSTRUCTURE
     1 8AK         1 TEMP              0 ****  ****    0 ROOT
