@<TRIPOS>MOLECULE
8AK
   31    32     1     0     0
SMALL
abcg2


@<TRIPOS>ATOM
      1 C10          1.2800     4.6000   -10.4050 cc         1 8AK       0.223500
      2 C13          0.5260     6.6150   -13.3520 c3         1 8AK      -0.135400
      3 C01         -1.5900     2.6470    -7.1430 c3         1 8AK      -0.103600
      4 C02         -0.1010     2.6910    -7.4570 c3         1 8AK       0.120700
      5 C03          0.7470     2.7120    -6.1910 c3         1 8AK      -0.103600
      6 N04          0.2200     3.8010    -8.3710 n          1 8AK      -0.380800
      7 C05         -0.5390     5.0150    -8.3040 cx         1 8AK       0.041700
      8 C06         -0.5340     5.8410    -7.0510 cx         1 8AK      -0.130900
      9 C07          0.1470     6.3450    -8.2790 cx         1 8AK      -0.130900
     10 C08          1.1880     3.6090    -9.2880 c          1 8AK       0.531600
     11 O09          1.9520     2.6570    -9.2860 o          1 8AK      -0.567100
     12 C11          0.2700     5.0610   -11.2830 cc         1 8AK      -0.229000
     13 C12          0.9450     5.8290   -12.1710 cd         1 8AK       0.180300
     14 O14          2.2430     5.8270   -11.8450 os         1 8AK      -0.070700
     15 N15          2.4510     5.0510   -10.7520 nd         1 8AK      -0.315300
     16 H1           1.0190     6.2620   -14.2590 hc         1 8AK       0.063033
     17 H2          -0.5490     6.5240   -13.4910 hc         1 8AK       0.063033
     18 H3           0.7670     7.6710   -13.2300 hc         1 8AK       0.063033
     19 H4          -1.8040     1.7330    -6.5880 hc         1 8AK       0.042533
     20 H5          -1.9130     3.4880    -6.5300 hc         1 8AK       0.042533
     21 H6          -2.1920     2.6300    -8.0520 hc         1 8AK       0.042533
     22 H7           0.1430     1.7770    -8.0000 h1         1 8AK       0.071700
     23 H8           0.5700     1.8020    -5.6150 hc         1 8AK       0.042533
     24 H9           1.8100     2.7530    -6.4250 hc         1 8AK       0.042533
     25 H10          0.5040     3.5580    -5.5480 hc         1 8AK       0.042533
     26 H11         -1.4890     4.9850    -8.8280 h1         1 8AK       0.077700
     27 H12         -1.4760     6.2800    -6.7500 hc         1 8AK       0.080700
     28 H13          0.0970     5.5300    -6.2310 hc         1 8AK       0.080700
     29 H14          1.2300     6.3650    -8.2690 hc         1 8AK       0.080700
     30 H15         -0.3080     7.1430    -8.8500 hc         1 8AK       0.080700
     31 H16         -0.7860     4.8520   -11.2570 ha         1 8AK       0.154000
@<TRIPOS>BOND
     1     1    10 1   
     2     1    12 1   
     3     1    15 2   
     4     2    13 1   
     5     2    16 1   
     6     2    17 1   
     7     2    18 1   
     8     3     4 1   
     9     3    19 1   
    10     3    20 1   
    11     3    21 1   
    12     4     5 1   
    13     4     6 1   
    14     4    22 1   
    15     5    23 1   
    16     5    24 1   
    17     5    25 1   
    18     6     7 1   
    19     6    10 1   
    20     7     8 1   
    21     7     9 1   
    22     7    26 1   
    23     8     9 1   
    24     8    27 1   
    25     8    28 1   
    26     9    29 1   
    27     9    30 1   
    28    10    11 2   
    29    12    13 2   
    30    12    31 1   
    31    13    14 1   
    32    14    15 1   
@<TRIPOS>SUBSTRUCTURE
     1 8AK         1 TEMP              0 ****  ****    0 ROOT
