@<TRIPOS>MOLECULE
8AM
   60    63     1     0     0
SMALL
No Charge or Current Charge


@<TRIPOS>ATOM
      1 C5           1.8410    -1.3880     0.1030 c5         1 8AM       0.224800
      2 C6          -0.6990    -1.0470     0.0260 ca         1 8AM       0.450900
      3 C8          -1.5510     1.0770     0.0020 ca         1 8AM       0.480900
      4 C10         -2.9700    -0.8340    -0.0800 ca         1 8AM       0.165500
      5 N12         -4.3160    -1.0600    -0.1450 na         1 8AM      -0.283300
      6 C13         -4.9700     0.1740    -0.1660 cc         1 8AM       0.388700
      7 C15         -4.9070    -2.4110    -0.1830 c3         1 8AM       0.092300
      8 C17         -5.7860    -2.6760     1.0570 c3         1 8AM      -0.106600
      9 C20          1.0480     2.9570     0.1350 cc         1 8AM      -0.141000
     10 C1           2.6320    -2.6840    -0.2510 c5         1 8AM       0.059700
     11 C2           1.8260    -3.7570     0.5290 c5         1 8AM       0.163300
     12 C3           0.3720    -3.3780     0.1240 c5         1 8AM       0.218800
     13 N4           0.4350    -1.8840     0.0730 nh         1 8AM      -0.794300
     14 N7          -0.4690     0.2830     0.0470 nb         1 8AM      -0.352000
     15 C9          -2.8460     0.5310    -0.0630 ca         1 8AM      -0.136600
     16 N11         -1.9050    -1.6530    -0.0360 nb         1 8AM      -0.295000
     17 N14         -4.0830     1.1870    -0.1160 nd         1 8AM      -0.543100
     18 C16         -5.6800    -2.6510    -1.4970 c3         1 8AM      -0.106600
     19 N18         -1.3760     2.4550     0.0210 nu         1 8AM      -0.876900
     20 C19         -0.2720     3.2980     0.0770 cd         1 8AM       0.154000
     21 N21          1.7180     4.1850     0.1730 na         1 8AM       0.121800
     22 N22          0.8860     5.2940     0.1420 nc         1 8AM      -0.584800
     23 C23         -0.3000     4.7230     0.0850 cd         1 8AM       0.462300
     24 O24         -1.4710     5.4400     0.0360 os         1 8AM      -0.451300
     25 C25         -1.4320     6.8800     0.0470 c3         1 8AM       0.157900
     26 F27          2.1620    -5.0510     0.1150 f          1 8AM      -0.248000
     27 N28          3.9570    -2.5900     0.4030 ns         1 8AM      -0.504900
     28 C29          4.9240    -1.7950    -0.1810 c          1 8AM       0.599100
     29 C30          6.2610    -1.7560     0.5660 c3         1 8AM      -0.156400
     30 C31          7.3530    -2.5550    -0.1770 c3         1 8AM      -0.076100
     31 O32          4.7250    -1.1460    -1.1980 o          1 8AM      -0.589100
     32 H1           2.1000    -1.0070     1.1010 h1         1 8AM       0.061700
     33 H2           2.0280    -0.5960    -0.6350 h1         1 8AM       0.061700
     34 H3          -6.0490     0.2630    -0.2160 h5         1 8AM       0.063800
     35 H4          -4.0870    -3.1410    -0.1570 h1         1 8AM       0.087700
     36 H5          -6.6440    -1.9940     1.0840 hc         1 8AM       0.046367
     37 H6          -6.1650    -3.7050     1.0480 hc         1 8AM       0.046367
     38 H7          -5.2040    -2.5360     1.9760 hc         1 8AM       0.046367
     39 H9           3.5110     4.9570    -0.6230 h1         1 8AM       0.053700
     40 H10          3.4360     4.9000     1.1640 h1         1 8AM       0.053700
     41 H11          3.6750     3.3950     0.2300 h1         1 8AM       0.053700
     42 H12          2.6620    -2.8810    -1.3320 h1         1 8AM       0.105700
     43 H13          1.9690    -3.6810     1.6150 h1         1 8AM       0.058700
     44 H14          0.1070    -3.8000    -0.8550 h1         1 8AM       0.071200
     45 H15         -0.3480    -3.7450     0.8690 h1         1 8AM       0.071200
     46 H16         -5.0240    -2.4930    -2.3620 hc         1 8AM       0.046367
     47 H17         -6.0570    -3.6800    -1.5400 hc         1 8AM       0.046367
     48 H18         -6.5340    -1.9680    -1.5820 hc         1 8AM       0.046367
     49 H19         -2.2750     2.9430    -0.0170 hn         1 8AM       0.536000
     50 H20         -2.4480     7.2900     0.0030 h1         1 8AM       0.044700
     51 H21         -0.9540     7.2520     0.9630 h1         1 8AM       0.044700
     52 H22         -0.8740     7.2630    -0.8180 h1         1 8AM       0.044700
     53 H23          4.2160    -3.0980     1.2410 hn         1 8AM       0.312500
     54 H24          6.5920    -0.7140     0.6450 hc         1 8AM       0.055700
     55 H25          6.1460    -2.1850     1.5690 hc         1 8AM       0.055700
     56 H26          8.3000    -2.5150     0.3730 hc         1 8AM       0.043700
     57 H27          7.0610    -3.6080    -0.2810 hc         1 8AM       0.043700
     58 H28          7.5220    -2.1440    -1.1800 hc         1 8AM       0.043700
     59 H8           1.5530     2.0010     0.1520 h4         1 8AM       0.177000
     60 C26          3.1760     4.3710     0.2400 c3         1 8AM       0.084900
@<TRIPOS>BOND
     1     1    10 1   
     2     1    13 1   
     3     1    32 1   
     4     1    33 1   
     5     2    13 1   
     6     2    14 ar  
     7     2    16 ar  
     8     3    14 ar  
     9     3    15 ar  
    10     3    19 1   
    11     4     5 1   
    12     4    15 ar  
    13     4    16 ar  
    14     5     6 1   
    15     5     7 1   
    16     6    17 2   
    17     6    34 1   
    18     7     8 1   
    19     7    18 1   
    20     7    35 1   
    21     8    36 1   
    22     8    37 1   
    23     8    38 1   
    24     9    20 2   
    25     9    21 1   
    26     9    59 1   
    27    10    11 1   
    28    10    27 1   
    29    10    42 1   
    30    11    12 1   
    31    11    26 1   
    32    11    43 1   
    33    12    13 1   
    34    12    44 1   
    35    12    45 1   
    36    15    17 1   
    37    18    46 1   
    38    18    47 1   
    39    18    48 1   
    40    19    20 1   
    41    19    49 1   
    42    20    23 1   
    43    21    22 1   
    44    21    60 1   
    45    22    23 2   
    46    23    24 1   
    47    24    25 1   
    48    25    50 1   
    49    25    51 1   
    50    25    52 1   
    51    27    28 1   
    52    27    53 1   
    53    28    29 1   
    54    28    31 2   
    55    29    30 1   
    56    29    54 1   
    57    29    55 1   
    58    30    56 1   
    59    30    57 1   
    60    30    58 1   
    61    39    60 1   
    62    40    60 1   
    63    41    60 1   
@<TRIPOS>SUBSTRUCTURE
     1 8AM         1 TEMP              0 ****  ****    0 ROOT
