@<TRIPOS>MOLECULE
8AM
   60    63     1     0     0
SMALL
bcc


@<TRIPOS>ATOM
      1 C5           1.6320    -1.3180     0.1720 c5         1 8AM       0.224800
      2 C6          -0.8220    -1.0730     0.0870 ca         1 8AM       0.976900
      3 C8          -1.6360     1.0810     0.0330 ca         1 8AM       0.809200
      4 C10         -3.0130    -0.8410    -0.0490 ca         1 8AM       0.493800
      5 N12         -4.3430    -1.1230    -0.1310 na         1 8AM      -0.254000
      6 C13         -4.9880     0.0840    -0.1710 cc         1 8AM       0.388700
      7 C15         -4.9560    -2.4490    -0.1420 c3         1 8AM       0.063000
      8 C17         -5.7770    -2.6700     1.1210 c3         1 8AM      -0.106600
      9 C20          1.0570     2.6250     0.3860 cc         1 8AM      -0.108300
     10 C1           2.4850    -2.5600    -0.1010 c5         1 8AM       0.059700
     11 C2           1.6640    -3.6600     0.5450 c5         1 8AM       0.144600
     12 C3           0.2300    -3.2920     0.1970 c5         1 8AM       0.218800
     13 N4           0.2830    -1.8460     0.1520 nh         1 8AM      -0.794300
     14 N7          -0.6030     0.2550     0.1080 nb         1 8AM      -0.878000
     15 C9          -2.9340     0.5430    -0.0490 ca         1 8AM      -0.267200
     16 N11         -1.9960    -1.6960     0.0120 nb         1 8AM      -0.821000
     17 N14         -4.1830     1.1050    -0.1260 nd         1 8AM      -0.543100
     18 C16         -5.7730    -2.6530    -1.4100 c3         1 8AM      -0.106600
     19 N18         -1.4390     2.4110     0.0420 nu         1 8AM      -0.683300
     20 C19         -0.2200     3.0730     0.1210 cd         1 8AM      -0.049700
     21 N21          1.8590     3.7070     0.3570 na         1 8AM       0.100400
     22 N22          1.1940     4.8330     0.0860 nc         1 8AM      -0.584800
     23 C23         -0.0570     4.4630    -0.0590 cd         1 8AM       0.527600
     24 O24         -1.0650     5.2930    -0.3360 os         1 8AM      -0.428100
     25 C25         -0.7450     6.6710    -0.4480 c3         1 8AM       0.134700
     26 F27          2.0020    -4.9160     0.0700 f          1 8AM      -0.229300
     27 N28          3.8310    -2.4800     0.3950 ns         1 8AM      -0.571900
     28 C29          4.8400    -1.9210    -0.3080 c          1 8AM       0.666100
     29 C30          6.1630    -1.8660     0.4270 c3         1 8AM      -0.156400
     30 C31          7.2600    -1.1600    -0.3480 c3         1 8AM      -0.076100
     31 O32          4.6910    -1.5010    -1.4450 o          1 8AM      -0.589100
     32 H1           1.8870    -0.8860     1.1460 h1         1 8AM       0.061700
     33 H2           1.7830    -0.5520    -0.5870 h1         1 8AM       0.061700
     34 H3          -6.0640     0.1510    -0.2360 h5         1 8AM       0.063800
     35 H4          -4.1200    -3.1500    -0.1470 h1         1 8AM       0.087700
     36 H5          -6.6160    -1.9750     1.1770 hc         1 8AM       0.046367
     37 H6          -6.1820    -3.6820     1.1270 hc         1 8AM       0.046367
     38 H7          -5.1660    -2.5450     2.0140 hc         1 8AM       0.046367
     39 H9           3.7890     4.0340    -0.3840 h1         1 8AM       0.053700
     40 H10          3.5560     4.4330     1.3290 h1         1 8AM       0.053700
     41 H11          3.6260     2.7440     0.8160 h1         1 8AM       0.053700
     42 H12          2.5150    -2.7420    -1.1780 h1         1 8AM       0.105700
     43 H13          1.8120    -3.6680     1.6300 h1         1 8AM       0.058700
     44 H14         -0.0500    -3.7250    -0.7690 h1         1 8AM       0.071200
     45 H15         -0.4830    -3.6480     0.9410 h1         1 8AM       0.071200
     46 H16         -5.1620    -2.5110    -2.3010 hc         1 8AM       0.046367
     47 H17         -6.1720    -3.6660    -1.4310 hc         1 8AM       0.046367
     48 H18         -6.6180    -1.9640    -1.4590 hc         1 8AM       0.046367
     49 H19         -2.2640     2.9880    -0.0150 hn         1 8AM       0.480800
     50 H20         -1.6740     7.1840    -0.6840 h1         1 8AM       0.044700
     51 H21         -0.3430     7.0670     0.4860 h1         1 8AM       0.044700
     52 H22         -0.0220     6.8520    -1.2450 h1         1 8AM       0.044700
     53 H23          3.9940    -2.7240     1.3600 hn         1 8AM       0.312500
     54 H24          6.0010    -1.3720     1.3900 hc         1 8AM       0.055700
     55 H25          6.4650    -2.8890     0.6710 hc         1 8AM       0.055700
     56 H26          8.1750    -1.1330     0.2430 hc         1 8AM       0.043700
     57 H27          7.4870    -1.6710    -1.2830 hc         1 8AM       0.043700
     58 H28          6.9880    -0.1320    -0.5850 hc         1 8AM       0.043700
     59 H8           1.4290     1.6390     0.5920 h4         1 8AM       0.195000
     60 C26          3.2870     3.7370     0.5360 c3         1 8AM       0.055600
@<TRIPOS>BOND
     1     1    10 1   
     2     1    13 1   
     3     1    32 1   
     4     1    33 1   
     5     2    13 1   
     6     2    14 ar  
     7     2    16 ar  
     8     3    14 ar  
     9     3    15 ar  
    10     3    19 1   
    11     4     5 1   
    12     4    15 ar  
    13     4    16 ar  
    14     5     6 1   
    15     5     7 1   
    16     6    17 2   
    17     6    34 1   
    18     7     8 1   
    19     7    18 1   
    20     7    35 1   
    21     8    36 1   
    22     8    37 1   
    23     8    38 1   
    24     9    20 2   
    25     9    21 1   
    26     9    59 1   
    27    10    11 1   
    28    10    27 1   
    29    10    42 1   
    30    11    12 1   
    31    11    26 1   
    32    11    43 1   
    33    12    13 1   
    34    12    44 1   
    35    12    45 1   
    36    15    17 1   
    37    18    46 1   
    38    18    47 1   
    39    18    48 1   
    40    19    20 1   
    41    19    49 1   
    42    20    23 1   
    43    21    22 1   
    44    21    60 1   
    45    22    23 2   
    46    23    24 1   
    47    24    25 1   
    48    25    50 1   
    49    25    51 1   
    50    25    52 1   
    51    27    28 1   
    52    27    53 1   
    53    28    29 1   
    54    28    31 2   
    55    29    30 1   
    56    29    54 1   
    57    29    55 1   
    58    30    56 1   
    59    30    57 1   
    60    30    58 1   
    61    39    60 1   
    62    40    60 1   
    63    41    60 1   
@<TRIPOS>SUBSTRUCTURE
     1 8AM         1 TEMP              0 ****  ****    0 ROOT
