@<TRIPOS>MOLECULE
8AO
   69    73     1     0     0
SMALL
bcc


@<TRIPOS>ATOM
      1 C2           3.0650     3.1590    -1.3510 c2         1 8AO       0.402100
      2 C3           3.2170     1.8040    -1.5180 ce         1 8AO      -0.257900
      3 C4           3.8730     0.8700    -0.5030 c6         1 8AO       0.199800
      4 C5           3.8860     1.6350     0.7860 cc         1 8AO      -0.310600
      5 C6           3.6480     3.0020     0.8560 cc         1 8AO       0.536600
      6 C8           2.7160     1.2640    -2.7150 cg         1 8AO       0.221500
      7 C10          4.1370     1.2890     2.1020 cd         1 8AO      -0.035600
      8 C12          4.4460    -0.0160     2.7410 c3         1 8AO      -0.037800
      9 C13          5.3290     0.5170    -0.9260 c3         1 8AO      -0.044700
     10 C14          5.4210    -0.1530    -2.2960 c3         1 8AO      -0.089100
     11 C15          2.9900    -0.3640    -0.2870 ca         1 8AO      -0.066300
     12 C16          3.5000    -1.6450    -0.1480 ca         1 8AO      -0.074000
     13 C17          2.6550    -2.7140     0.1420 ca         1 8AO      -0.203300
     14 C18          1.2960    -2.5210     0.2960 ca         1 8AO      -0.064000
     15 C19          0.7620    -1.2380     0.1590 cp         1 8AO      -0.058000
     16 C20          1.6170    -0.1830    -0.1310 ca         1 8AO      -0.067000
     17 O52         -5.3490     0.7790     1.7970 o          1 8AO      -0.587800
     18 O51         -5.7970    -1.5980     1.1110 o          1 8AO      -0.587800
     19 C56         -5.6770     0.2510    -0.7830 c3         1 8AO      -0.116300
     20 C57         -7.1510     0.4990    -0.7560 ca         1 8AO      -0.091300
     21 C62         -7.6480     1.7490    -0.3970 ca         1 8AO      -0.100000
     22 C61         -9.0170     1.9710    -0.3520 ca         1 8AO      -0.127500
     23 C60         -9.8990     0.9420    -0.6560 ca         1 8AO      -0.114000
     24 C59         -9.4090    -0.3080    -1.0100 ca         1 8AO      -0.127500
     25 C58         -8.0400    -0.5300    -1.0540 ca         1 8AO      -0.100000
     26 C41         -3.4130    -0.5860     0.6570 ca         1 8AO      -0.270500
     27 C40         -2.9690    -1.7850     0.1140 ca         1 8AO      -0.033500
     28 C39         -1.6110    -1.9860    -0.0540 ca         1 8AO      -0.139000
     29 C42         -2.5180     0.4030     1.0380 ca         1 8AO      -0.033500
     30 C43         -1.1610     0.1820     0.8770 ca         1 8AO      -0.139000
     31 C32         -0.6870    -1.0110     0.3270 cp         1 8AO       0.024000
     32 C33          3.2660    -4.0720     0.2970 c3         1 8AO       0.721200
     33 F49          4.1830    -4.0910     1.2760 f          1 8AO      -0.234633
     34 F48          2.3670    -5.0150     0.5860 f          1 8AO      -0.234633
     35 F47          3.8970    -4.4580    -0.8210 f          1 8AO      -0.234633
     36 C34          6.2460     1.7360    -0.9020 c3         1 8AO      -0.089100
     37 N9           2.2750     0.8310    -3.6950 n1         1 8AO      -0.412800
     38 N7           2.6520     4.0210    -2.2880 nv         1 8AO      -0.848600
     39 N54          4.0340     2.4340     2.8010 na         1 8AO      -0.004600
     40 N11          3.7320     3.5040     2.0590 nd         1 8AO      -0.507800
     41 O1           3.3520     3.7930    -0.2030 os         1 8AO      -0.332400
     42 H1           5.3230    -0.4780     2.2880 hc         1 8AO       0.060033
     43 H2           4.6430     0.1020     3.8050 hc         1 8AO       0.060033
     44 H3           3.6140    -0.7110     2.6270 hc         1 8AO       0.060033
     45 H4           5.7180    -0.1790    -0.1740 hc         1 8AO       0.039700
     46 H5           6.4130    -0.5870    -2.4270 hc         1 8AO       0.038367
     47 H6           4.6920    -0.9500    -2.4410 hc         1 8AO       0.038367
     48 H7           5.2790     0.5720    -3.0990 hc         1 8AO       0.038367
     49 H8           4.5610    -1.8250    -0.2530 ha         1 8AO       0.151000
     50 H9           0.6460    -3.3490     0.5420 ha         1 8AO       0.153000
     51 H10          1.2100     0.8130    -0.2510 ha         1 8AO       0.145000
     52 H11         -5.1030     1.1520    -1.0060 h1         1 8AO       0.098700
     53 H12         -5.3980    -0.5290    -1.4920 h1         1 8AO       0.098700
     54 H13         -6.9630     2.5550    -0.1670 ha         1 8AO       0.137500
     55 H14         -9.3950     2.9470    -0.0780 ha         1 8AO       0.134500
     56 H15        -10.9670     1.1160    -0.6230 ha         1 8AO       0.132000
     57 H16        -10.0920    -1.1120    -1.2500 ha         1 8AO       0.134500
     58 H17         -7.6600    -1.5040    -1.3370 ha         1 8AO       0.137500
     59 H18         -3.6650    -2.5590    -0.1800 ha         1 8AO       0.156000
     60 H19         -1.2750    -2.9120    -0.5020 ha         1 8AO       0.141000
     61 H20         -2.8640     1.3320     1.4700 ha         1 8AO       0.156000
     62 H21         -0.4670     0.9440     1.2060 ha         1 8AO       0.141000
     63 H22          6.3440     2.1640     0.0950 hc         1 8AO       0.038367
     64 H23          7.2450     1.4500    -1.2350 hc         1 8AO       0.038367
     65 H24          5.8890     2.5180    -1.5770 hc         1 8AO       0.038367
     66 H25          2.3450     3.6790    -3.1830 hn         1 8AO       0.449800
     67 H26          2.2680     4.9090    -2.0040 hn         1 8AO       0.449800
     68 H27          4.1530     2.5430     3.7960 hn         1 8AO       0.331700
     69 S44         -5.1520    -0.3140     0.8490 sy         1 8AO       1.069300
@<TRIPOS>BOND
     1     1     2 2   
     2     1    38 1   
     3     1    41 1   
     4     2     3 1   
     5     2     6 1   
     6     3     4 1   
     7     3     9 1   
     8     3    11 1   
     9     4     5 1   
    10     4     7 2   
    11     5    40 2   
    12     5    41 1   
    13     6    37 3   
    14     7     8 1   
    15     7    39 1   
    16     8    42 1   
    17     8    43 1   
    18     8    44 1   
    19     9    10 1   
    20     9    36 1   
    21     9    45 1   
    22    10    46 1   
    23    10    47 1   
    24    10    48 1   
    25    11    12 ar  
    26    11    16 ar  
    27    12    13 ar  
    28    12    49 1   
    29    13    14 ar  
    30    13    32 1   
    31    14    15 ar  
    32    14    50 1   
    33    15    16 ar  
    34    15    31 1   
    35    16    51 1   
    36    17    69 2   
    37    18    69 2   
    38    19    20 1   
    39    19    52 1   
    40    19    53 1   
    41    19    69 1   
    42    20    21 ar  
    43    20    25 ar  
    44    21    22 ar  
    45    21    54 1   
    46    22    23 ar  
    47    22    55 1   
    48    23    24 ar  
    49    23    56 1   
    50    24    25 ar  
    51    24    57 1   
    52    25    58 1   
    53    26    27 ar  
    54    26    29 ar  
    55    26    69 1   
    56    27    28 ar  
    57    27    59 1   
    58    28    31 ar  
    59    28    60 1   
    60    29    30 ar  
    61    29    61 1   
    62    30    31 ar  
    63    30    62 1   
    64    32    33 1   
    65    32    34 1   
    66    32    35 1   
    67    36    63 1   
    68    36    64 1   
    69    36    65 1   
    70    38    66 1   
    71    38    67 1   
    72    39    40 1   
    73    39    68 1   
@<TRIPOS>SUBSTRUCTURE
     1 8AO         1 TEMP              0 ****  ****    0 ROOT
