@<TRIPOS>MOLECULE
8AO
   69    73     1     0     0
SMALL
No Charge or Current Charge


@<TRIPOS>ATOM
      1 C2           2.9430     3.1180    -1.3650 c2         1 8AO       0.402100
      2 C3           3.1710     1.8030    -1.6020 ce         1 8AO      -0.257900
      3 C4           3.8700     0.8890    -0.5550 c6         1 8AO       0.199800
      4 C5           3.9480     1.6750     0.7270 cc         1 8AO      -0.245300
      5 C6           3.6560     3.0390     0.8580 cc         1 8AO       0.471300
      6 C8           2.7420     1.2120    -2.8340 cg         1 8AO       0.310700
      7 C10          4.3040     1.3610     2.0760 cd         1 8AO      -0.086300
      8 C12          4.7270     0.0310     2.7020 c3         1 8AO      -0.037800
      9 C13          5.3650     0.6010    -1.0200 c3         1 8AO      -0.044700
     10 C14          5.5260    -0.2520    -2.3110 c3         1 8AO      -0.089100
     11 C15          3.0140    -0.3780    -0.2510 ca         1 8AO      -0.066300
     12 C16          3.5730    -1.6630    -0.0530 ca         1 8AO      -0.056000
     13 C17          2.7610    -2.7760     0.2480 ca         1 8AO      -0.203300
     14 C18          1.3700    -2.5950     0.3860 ca         1 8AO      -0.046000
     15 C19          0.7770    -1.3210     0.2270 cp         1 8AO      -0.058000
     16 C20          1.6200    -0.2280    -0.0850 ca         1 8AO      -0.049000
     17 O52         -5.5190     0.4120     1.9940 o          1 8AO      -0.517000
     18 O51         -5.9330    -1.8590     0.8870 o          1 8AO      -0.517000
     19 C56         -5.7480     0.2950    -0.6400 c3         1 8AO      -0.227100
     20 C57         -7.2390     0.6070    -0.7220 ca         1 8AO      -0.091300
     21 C62         -7.7350     1.8330    -0.2380 ca         1 8AO      -0.082000
     22 C61         -9.1090     2.1220    -0.3170 ca         1 8AO      -0.109500
     23 C60         -9.9930     1.1880    -0.8830 ca         1 8AO      -0.096000
     24 C59         -9.5030    -0.0360    -1.3690 ca         1 8AO      -0.109500
     25 C58         -8.1290    -0.3250    -1.2900 ca         1 8AO      -0.082000
     26 C41         -3.5040    -0.7740     0.7110 ca         1 8AO      -0.270500
     27 C40         -3.0030    -1.9420     0.1030 ca         1 8AO      -0.015500
     28 C39         -1.6170    -2.1150    -0.0500 ca         1 8AO      -0.121000
     29 C42         -2.6080     0.2180     1.1570 ca         1 8AO      -0.015500
     30 C43         -1.2240     0.0370     0.9980 ca         1 8AO      -0.121000
     31 C32         -0.6990    -1.1320     0.3930 cp         1 8AO       0.024000
     32 C33          3.4030    -4.1520     0.4610 c3         1 8AO       0.357300
     33 F49          3.9260    -4.2610     1.7030 f          1 8AO      -0.113333
     34 F48          2.5230    -5.1690     0.3130 f          1 8AO      -0.113333
     35 F47          4.4090    -4.3820    -0.4140 f          1 8AO      -0.113333
     36 C34          6.2430     1.8760    -1.1570 c3         1 8AO      -0.089100
     37 N9           2.3530     0.7600    -3.8360 n1         1 8AO      -0.502000
     38 N7           2.3460     4.0060    -2.2270 nv         1 8AO      -0.959000
     39 N54          4.2090     2.5790     2.8860 na         1 8AO      -0.004200
     40 N11          3.7920     3.6310     2.0460 nd         1 8AO      -0.507800
     41 O1           3.2380     3.7650    -0.2090 os         1 8AO      -0.332400
     42 H1           5.5430    -0.4340     2.1360 hc         1 8AO       0.060033
     43 H2           5.0750     0.1620     3.7330 hc         1 8AO       0.060033
     44 H3           3.8890    -0.6760     2.7240 hc         1 8AO       0.060033
     45 H4           5.8410     0.0270    -0.2180 hc         1 8AO       0.039700
     46 H5           6.5430    -0.6590    -2.3710 hc         1 8AO       0.038367
     47 H6           4.8280    -1.0940    -2.3440 hc         1 8AO       0.038367
     48 H7           5.3650     0.3550    -3.2090 hc         1 8AO       0.038367
     49 H8           4.6460    -1.8140    -0.1160 ha         1 8AO       0.133000
     50 H9           0.7390    -3.4410     0.6470 ha         1 8AO       0.135000
     51 H10          1.1750     0.7570    -0.2040 ha         1 8AO       0.127000
     52 H11         -5.1570     1.2150    -0.6920 h1         1 8AO       0.098700
     53 H12         -5.4450    -0.3630    -1.4620 h1         1 8AO       0.098700
     54 H13         -7.0570     2.5610     0.2020 ha         1 8AO       0.119500
     55 H14         -9.4870     3.0700     0.0590 ha         1 8AO       0.116500
     56 H15        -11.0560     1.4120    -0.9440 ha         1 8AO       0.114000
     57 H16        -10.1860    -0.7600    -1.8070 ha         1 8AO       0.116500
     58 H17         -7.7580    -1.2750    -1.6690 ha         1 8AO       0.119500
     59 H18         -3.6800    -2.7160    -0.2550 ha         1 8AO       0.138000
     60 H19         -1.2520    -3.0180    -0.5330 ha         1 8AO       0.123000
     61 H20         -2.9760     1.1290     1.6270 ha         1 8AO       0.138000
     62 H21         -0.5500     0.8080     1.3630 ha         1 8AO       0.123000
     63 H22          6.3060     2.4270    -0.2110 hc         1 8AO       0.038367
     64 H23          7.2670     1.6090    -1.4440 hc         1 8AO       0.038367
     65 H24          5.8450     2.5520    -1.9230 hc         1 8AO       0.038367
     66 H25          1.7400     3.6040    -2.9370 hn         1 8AO       0.505000
     67 H26          1.9990     4.8610    -1.8020 hn         1 8AO       0.505000
     68 H27          4.4000     2.6940     3.8800 hn         1 8AO       0.382000
     69 S44         -5.2850    -0.5400     0.8990 sy         1 8AO       1.038500
@<TRIPOS>BOND
     1     1     2 2   
     2     1    38 1   
     3     1    41 1   
     4     2     3 1   
     5     2     6 1   
     6     3     4 1   
     7     3     9 1   
     8     3    11 1   
     9     4     5 1   
    10     4     7 2   
    11     5    40 2   
    12     5    41 1   
    13     6    37 3   
    14     7     8 1   
    15     7    39 1   
    16     8    42 1   
    17     8    43 1   
    18     8    44 1   
    19     9    10 1   
    20     9    36 1   
    21     9    45 1   
    22    10    46 1   
    23    10    47 1   
    24    10    48 1   
    25    11    12 ar  
    26    11    16 ar  
    27    12    13 ar  
    28    12    49 1   
    29    13    14 ar  
    30    13    32 1   
    31    14    15 ar  
    32    14    50 1   
    33    15    16 ar  
    34    15    31 1   
    35    16    51 1   
    36    17    69 2   
    37    18    69 2   
    38    19    20 1   
    39    19    52 1   
    40    19    53 1   
    41    19    69 1   
    42    20    21 ar  
    43    20    25 ar  
    44    21    22 ar  
    45    21    54 1   
    46    22    23 ar  
    47    22    55 1   
    48    23    24 ar  
    49    23    56 1   
    50    24    25 ar  
    51    24    57 1   
    52    25    58 1   
    53    26    27 ar  
    54    26    29 ar  
    55    26    69 1   
    56    27    28 ar  
    57    27    59 1   
    58    28    31 ar  
    59    28    60 1   
    60    29    30 ar  
    61    29    61 1   
    62    30    31 ar  
    63    30    62 1   
    64    32    33 1   
    65    32    34 1   
    66    32    35 1   
    67    36    63 1   
    68    36    64 1   
    69    36    65 1   
    70    38    66 1   
    71    38    67 1   
    72    39    40 1   
    73    39    68 1   
@<TRIPOS>SUBSTRUCTURE
     1 8AO         1 TEMP              0 ****  ****    0 ROOT
