@<TRIPOS>MOLECULE
8AP
   28    29     1     0     0
SMALL
abcg2


@<TRIPOS>ATOM
      1 N1          -0.5880    -4.2770     5.5270 nv         1 8AP      -1.038900
      2 C2          -0.0740    -3.4040     6.4580 ca         1 8AP       0.542900
      3 N3          -0.3080    -3.6390     7.7340 nb         1 8AP      -0.720000
      4 C4           0.1600    -2.7850     8.6500 ca         1 8AP       0.339900
      5 C5           0.8920    -1.6670     8.3240 ca         1 8AP      -0.174000
      6 C6           1.1290    -1.4010     6.9720 ca         1 8AP      -0.117000
      7 C7           0.6420    -2.2620     6.0060 ca         1 8AP       0.188000
      8 N8           0.8330    -2.1090     4.6400 nu         1 8AP      -0.928200
      9 C9           1.5400    -0.9450     4.1520 c3         1 8AP       0.238100
     10 C10          1.6800    -1.0030     2.6550 ca         1 8AP      -0.103300
     11 C11          2.2610    -2.1120     2.0410 ca         1 8AP      -0.095500
     12 C12          2.4010    -2.1620     0.6620 ca         1 8AP      -0.113500
     13 C13          1.9610    -1.1030    -0.1250 ca         1 8AP      -0.103000
     14 C14          1.3800     0.0040     0.4780 ca         1 8AP      -0.113500
     15 C15          1.2390     0.0490     1.8600 ca         1 8AP      -0.095500
     16 HN11        -0.9140    -5.1470     5.9190 hn         1 8AP       0.458000
     17 HN12        -0.0150    -4.4240     4.7080 hn         1 8AP       0.458000
     18 H4          -0.0590    -3.0250     9.6840 h4         1 8AP       0.017100
     19 H5           1.2630    -1.0030     9.0920 ha         1 8AP       0.121000
     20 H6           1.6780    -0.5120     6.6910 ha         1 8AP       0.116000
     21 HN8         -0.0030    -2.3020     4.1040 hn         1 8AP       0.462000
     22 H91          2.5340    -0.9300     4.6080 h1         1 8AP       0.043200
     23 H92          1.0540    -0.0030     4.4400 h1         1 8AP       0.043200
     24 H11          2.6080    -2.9410     2.6450 ha         1 8AP       0.116000
     25 H12          2.8560    -3.0280     0.2000 ha         1 8AP       0.113500
     26 H13          2.0710    -1.1430    -1.2010 ha         1 8AP       0.113000
     27 H14          1.0310     0.8320    -0.1250 ha         1 8AP       0.113500
     28 H15          0.7800     0.9140     2.3250 ha         1 8AP       0.116000
@<TRIPOS>BOND
     1     1     2 1   
     2     1    16 1   
     3     1    17 1   
     4     2     3 ar  
     5     2     7 ar  
     6     3     4 ar  
     7     4     5 ar  
     8     4    18 1   
     9     5     6 ar  
    10     5    19 1   
    11     6     7 ar  
    12     6    20 1   
    13     7     8 1   
    14     8     9 1   
    15     8    21 1   
    16     9    10 1   
    17     9    22 1   
    18     9    23 1   
    19    10    11 ar  
    20    10    15 ar  
    21    11    12 ar  
    22    11    24 1   
    23    12    13 ar  
    24    12    25 1   
    25    13    14 ar  
    26    13    26 1   
    27    14    15 ar  
    28    14    27 1   
    29    15    28 1   
@<TRIPOS>SUBSTRUCTURE
     1 8AP         1 TEMP              0 ****  ****    0 ROOT
