@<TRIPOS>MOLECULE
8AP
   28    29     1     0     0
SMALL
No Charge or Current Charge


@<TRIPOS>ATOM
      1 N1          -0.8980    -4.1480     5.6400 nv         1 8AP      -1.038900
      2 C2          -0.2710    -3.2720     6.4610 ca         1 8AP       0.542900
      3 N3          -0.5740    -3.5660     7.7270 nb         1 8AP      -0.720000
      4 C4          -0.0060    -2.8000     8.6850 ca         1 8AP       0.339900
      5 C5           0.8730    -1.7380     8.3980 ca         1 8AP      -0.174000
      6 C6           1.1890    -1.4350     7.0600 ca         1 8AP      -0.117000
      7 C7           0.6090    -2.2120     6.0370 ca         1 8AP       0.188000
      8 N8           0.8910    -1.9300     4.6710 nu         1 8AP      -0.928200
      9 C9           1.8690    -0.9730     4.1370 c3         1 8AP       0.238100
     10 C10          1.8620    -1.0190     2.6160 ca         1 8AP      -0.103300
     11 C11          2.7140    -1.9050     1.9260 ca         1 8AP      -0.095500
     12 C12          2.7070    -1.9460     0.5210 ca         1 8AP      -0.113500
     13 C13          1.8490    -1.1020    -0.2040 ca         1 8AP      -0.103000
     14 C14          0.9960    -0.2180     0.4780 ca         1 8AP      -0.113500
     15 C15          1.0020    -0.1760     1.8830 ca         1 8AP      -0.095500
     16 HN11        -1.3150    -4.9400     6.1140 hn         1 8AP       0.458000
     17 HN12        -0.4580    -4.3470     4.7490 hn         1 8AP       0.458000
     18 H4          -0.2590    -3.0440     9.7160 h4         1 8AP       0.017100
     19 H5           1.3000    -1.1580     9.2110 ha         1 8AP       0.121000
     20 H6           1.8630    -0.6140     6.8330 ha         1 8AP       0.116000
     21 HN8          0.3310    -2.4310     3.9790 hn         1 8AP       0.462000
     22 H91          2.8760    -1.2160     4.5060 h1         1 8AP       0.043200
     23 H92          1.6270     0.0450     4.4740 h1         1 8AP       0.043200
     24 H11          3.3800    -2.5630     2.4810 ha         1 8AP       0.116000
     25 H12          3.3670    -2.6320    -0.0050 ha         1 8AP       0.113500
     26 H13          1.8440    -1.1340    -1.2910 ha         1 8AP       0.113000
     27 H14          0.3300     0.4350    -0.0820 ha         1 8AP       0.113500
     28 H15          0.3370     0.5100     2.4040 ha         1 8AP       0.116000
@<TRIPOS>BOND
     1     1     2 1   
     2     1    16 1   
     3     1    17 1   
     4     2     3 ar  
     5     2     7 ar  
     6     3     4 ar  
     7     4     5 ar  
     8     4    18 1   
     9     5     6 ar  
    10     5    19 1   
    11     6     7 ar  
    12     6    20 1   
    13     7     8 1   
    14     8     9 1   
    15     8    21 1   
    16     9    10 1   
    17     9    22 1   
    18     9    23 1   
    19    10    11 ar  
    20    10    15 ar  
    21    11    12 ar  
    22    11    24 1   
    23    12    13 ar  
    24    12    25 1   
    25    13    14 ar  
    26    13    26 1   
    27    14    15 ar  
    28    14    27 1   
    29    15    28 1   
@<TRIPOS>SUBSTRUCTURE
     1 8AP         1 TEMP              0 ****  ****    0 ROOT
