@<TRIPOS>MOLECULE
8AQ
   40    41     1     0     0
SMALL
No Charge or Current Charge


@<TRIPOS>ATOM
      1 C4         -13.6650   -15.6000     9.2700 ca         1 8AQ       0.209100
      2 C14        -16.1380   -15.5290    10.6600 ca         1 8AQ      -0.227600
      3 C5         -11.1990   -15.5510     9.1590 c3         1 8AQ       0.166600
      4 C6         -10.1010   -15.6160     8.0590 c6         1 8AQ      -0.064700
      5 C11        -10.1940   -14.4230     7.0630 c6         1 8AQ      -0.070400
      6 C7          -8.6830   -15.6810     8.6930 c6         1 8AQ      -0.070400
      7 C8          -7.5770   -15.7560     7.6110 c6         1 8AQ      -0.072900
      8 C9          -7.6790   -14.5690     6.6230 c6         1 8AQ      -0.075400
      9 C10         -9.0860   -14.4970     5.9820 c6         1 8AQ      -0.072900
     10 C12        -14.8690   -15.6860     8.5700 ca         1 8AQ      -0.198000
     11 C13        -16.0930   -15.6510     9.2520 ca         1 8AQ       0.008000
     12 N1         -17.6050   -15.3860    12.6500 nt         1 8AQ      -0.601000
     13 C3         -13.6850   -15.4780    10.6710 ca         1 8AQ      -0.311000
     14 C1         -13.7240   -15.2280    13.5450 c3         1 8AQ       0.155900
     15 C2         -14.9110   -15.4420    11.3730 ca         1 8AQ       0.215100
     16 O2         -12.4960   -15.6390     8.5410 os         1 8AQ      -0.342100
     17 C15        -17.5050   -15.5000    11.3130 c          1 8AQ       0.630700
     18 O3         -18.5360   -15.5780    10.6670 o          1 8AQ      -0.631100
     19 H1         -11.0530   -16.3860     9.8560 h1         1 8AQ       0.035200
     20 H2         -11.0960   -14.6100     9.7140 h1         1 8AQ       0.035200
     21 H3         -10.2750   -16.5510     7.5070 hc         1 8AQ       0.063700
     22 H4         -10.1090   -13.4730     7.6110 hc         1 8AQ       0.042200
     23 H5         -11.1770   -14.4120     6.5730 hc         1 8AQ       0.042200
     24 H6          -8.6070   -16.5560     9.3540 hc         1 8AQ       0.042200
     25 H7          -8.5160   -14.7980     9.3270 hc         1 8AQ       0.042200
     26 H8          -7.6610   -16.7040     7.0610 hc         1 8AQ       0.040950
     27 H9          -6.5880   -15.7600     8.0880 hc         1 8AQ       0.040950
     28 H10         -6.9170   -14.6690     5.8390 hc         1 8AQ       0.039700
     29 H11         -7.4640   -13.6290     7.1500 hc         1 8AQ       0.039700
     30 H12         -9.1510   -13.6210     5.3220 hc         1 8AQ       0.040950
     31 H13         -9.2490   -15.3790     5.3460 hc         1 8AQ       0.040950
     32 H14        -14.8550   -15.7800     7.4870 ha         1 8AQ       0.135000
     33 H15        -17.0120   -15.7200     8.6730 ha         1 8AQ       0.145000
     34 H16        -18.5150   -15.3670    13.0820 hn         1 8AQ       0.320500
     35 H17        -16.7610   -15.3200    13.2000 hn         1 8AQ       0.320500
     36 H18        -12.7480   -15.4120    11.2100 ha         1 8AQ       0.121000
     37 H19        -13.9790   -15.1410    14.6080 h1         1 8AQ       0.044033
     38 H20        -13.1010   -16.1230    13.4190 h1         1 8AQ       0.044033
     39 H21        -13.1370   -14.3440    13.2640 h1         1 8AQ       0.044033
     40 O1         -14.9220   -15.3220    12.7510 os         1 8AQ      -0.367100
@<TRIPOS>BOND
     1     1    10 ar  
     2     1    13 ar  
     3     1    16 1   
     4     2    11 ar  
     5     2    15 ar  
     6     2    17 1   
     7     3     4 1   
     8     3    16 1   
     9     3    19 1   
    10     3    20 1   
    11     4     5 1   
    12     4     6 1   
    13     4    21 1   
    14     5     9 1   
    15     5    22 1   
    16     5    23 1   
    17     6     7 1   
    18     6    24 1   
    19     6    25 1   
    20     7     8 1   
    21     7    26 1   
    22     7    27 1   
    23     8     9 1   
    24     8    28 1   
    25     8    29 1   
    26     9    30 1   
    27     9    31 1   
    28    10    11 ar  
    29    10    32 1   
    30    11    33 1   
    31    12    17 1   
    32    12    34 1   
    33    12    35 1   
    34    13    15 ar  
    35    13    36 1   
    36    14    37 1   
    37    14    38 1   
    38    14    39 1   
    39    14    40 1   
    40    15    40 1   
    41    17    18 2   
@<TRIPOS>SUBSTRUCTURE
     1 8AQ         1 TEMP              0 ****  ****    0 ROOT
