@<TRIPOS>MOLECULE
8AQ
   40    41     1     0     0
SMALL
abcg2


@<TRIPOS>ATOM
      1 C4         -13.6330   -15.6090     9.2380 ca         1 8AQ       0.209100
      2 C14        -16.0550   -15.5470    10.6780 ca         1 8AQ      -0.227600
      3 C5         -11.2520   -15.5970     9.1090 c3         1 8AQ       0.166600
      4 C6         -10.1760   -15.6370     8.0410 c6         1 8AQ      -0.064700
      5 C11        -10.2430   -14.4370     7.0960 c6         1 8AQ      -0.070400
      6 C7          -8.8050   -15.7100     8.7140 c6         1 8AQ      -0.070400
      7 C8          -7.6750   -15.7430     7.6910 c6         1 8AQ      -0.072900
      8 C9          -7.7470   -14.5520     6.7420 c6         1 8AQ      -0.075400
      9 C10         -9.1130   -14.4680     6.0710 c6         1 8AQ      -0.072900
     10 C12        -14.8520   -15.6980     8.5630 ca         1 8AQ      -0.198000
     11 C13        -16.0220   -15.6710     9.2870 ca         1 8AQ       0.008000
     12 N1         -17.5100   -15.3050    12.6270 nt         1 8AQ      -0.601000
     13 C3         -13.6200   -15.4860    10.6240 ca         1 8AQ      -0.311000
     14 C1         -13.6060   -15.2010    13.3900 c3         1 8AQ       0.155900
     15 C2         -14.8170   -15.4520    11.3390 ca         1 8AQ       0.215100
     16 O2         -12.5280   -15.6510     8.4860 os         1 8AQ      -0.342100
     17 C15        -17.4130   -15.5350    11.3090 c          1 8AQ       0.630700
     18 O3         -18.4110   -15.7230    10.6200 o          1 8AQ      -0.631100
     19 H1         -11.1350   -16.4450     9.7930 h1         1 8AQ       0.035200
     20 H2         -11.1560   -14.6770     9.6990 h1         1 8AQ       0.035200
     21 H3         -10.3100   -16.5520     7.4510 hc         1 8AQ       0.063700
     22 H4         -10.1730   -13.5160     7.6890 hc         1 8AQ       0.042200
     23 H5         -11.2060   -14.4050     6.5830 hc         1 8AQ       0.042200
     24 H6          -8.7510   -16.5920     9.3590 hc         1 8AQ       0.042200
     25 H7          -8.6770   -14.8380     9.3660 hc         1 8AQ       0.042200
     26 H8          -7.7390   -16.6710     7.1120 hc         1 8AQ       0.040950
     27 H9          -6.7110   -15.7640     8.2030 hc         1 8AQ       0.040950
     28 H10         -6.9570   -14.6200     5.9900 hc         1 8AQ       0.039700
     29 H11         -7.5630   -13.6300     7.3060 hc         1 8AQ       0.039700
     30 H12         -9.1690   -13.5840     5.4310 hc         1 8AQ       0.040950
     31 H13         -9.2470   -15.3340     5.4150 hc         1 8AQ       0.040950
     32 H14        -14.8700   -15.7910     7.4850 ha         1 8AQ       0.135000
     33 H15        -16.9620   -15.7470     8.7580 ha         1 8AQ       0.145000
     34 H16        -18.4230   -15.2970    13.0500 hn         1 8AQ       0.320500
     35 H17        -16.7060   -15.1560    13.2100 hn         1 8AQ       0.320500
     36 H18        -12.6810   -15.4200    11.1520 ha         1 8AQ       0.121000
     37 H19        -13.8790   -15.1040    14.4370 h1         1 8AQ       0.044033
     38 H20        -12.9700   -16.0800    13.2710 h1         1 8AQ       0.044033
     39 H21        -13.0530   -14.3110    13.0830 h1         1 8AQ       0.044033
     40 O1         -14.8230   -15.3330    12.6770 os         1 8AQ      -0.367100
@<TRIPOS>BOND
     1     1    10 ar  
     2     1    13 ar  
     3     1    16 1   
     4     2    11 ar  
     5     2    15 ar  
     6     2    17 1   
     7     3     4 1   
     8     3    16 1   
     9     3    19 1   
    10     3    20 1   
    11     4     5 1   
    12     4     6 1   
    13     4    21 1   
    14     5     9 1   
    15     5    22 1   
    16     5    23 1   
    17     6     7 1   
    18     6    24 1   
    19     6    25 1   
    20     7     8 1   
    21     7    26 1   
    22     7    27 1   
    23     8     9 1   
    24     8    28 1   
    25     8    29 1   
    26     9    30 1   
    27     9    31 1   
    28    10    11 ar  
    29    10    32 1   
    30    11    33 1   
    31    12    17 1   
    32    12    34 1   
    33    12    35 1   
    34    13    15 ar  
    35    13    36 1   
    36    14    37 1   
    37    14    38 1   
    38    14    39 1   
    39    14    40 1   
    40    15    40 1   
    41    17    18 2   
@<TRIPOS>SUBSTRUCTURE
     1 8AQ         1 TEMP              0 ****  ****    0 ROOT
