@<TRIPOS>MOLECULE
8AS
   23    23     1     0     0
SMALL
No Charge or Current Charge


@<TRIPOS>ATOM
      1 O1          -3.6120     0.9240     0.8890 o          1 8AS      -0.740500
      2 N3           0.7490     0.2140     0.2460 n3         1 8AS      -0.721600
      3 C13         -3.0970     0.1490     0.0980 c          1 8AS       0.718000
      4 C14         -1.7120    -0.4140     0.4330 c3         1 8AS      -0.210400
      5 C15         -0.6480     0.5480    -0.1320 c3         1 8AS       0.178800
      6 C16          1.7120     1.2930    -0.1430 c6         1 8AS       0.131800
      7 C17          3.1750     0.9510     0.2710 c6         1 8AS       0.151600
      8 C18          2.7000    -1.4050     0.1470 c6         1 8AS       0.151600
      9 C19          1.2240    -1.1150    -0.2640 c6         1 8AS       0.131800
     10 O            3.5680    -0.3290    -0.2800 os         1 8AS      -0.468000
     11 H16         -1.5560    -0.4400     1.5180 hc         1 8AS       0.023700
     12 H17         -1.5660    -1.3780    -0.0670 hc         1 8AS       0.023700
     13 H18         -0.8840     1.5570     0.2330 h1         1 8AS       0.036700
     14 H19         -0.7430     0.5770    -1.2270 h1         1 8AS       0.036700
     15 H20          1.6840     1.4530    -1.2320 h1         1 8AS       0.037200
     16 H21          1.4280     2.2460     0.3280 h1         1 8AS       0.037200
     17 H22          3.8610     1.7260    -0.0990 h1         1 8AS       0.037200
     18 H23          3.2580     0.9140     1.3670 h1         1 8AS       0.037200
     19 H24          2.7710    -1.5150     1.2390 h1         1 8AS       0.037200
     20 H25          3.0390    -2.3440    -0.3130 h1         1 8AS       0.037200
     21 H26          0.5980    -1.9290     0.1280 h1         1 8AS       0.037200
     22 H27          1.1500    -1.1500    -1.3610 h1         1 8AS       0.037200
     23 OXT         -3.6060    -0.1680    -0.9670 o          1 8AS      -0.740500
@<TRIPOS>BOND
     1     1     3 1   
     2     2     5 1   
     3     2     6 1   
     4     2     9 1   
     5     3     4 1   
     6     3    23 1   
     7     4     5 1   
     8     4    11 1   
     9     4    12 1   
    10     5    13 1   
    11     5    14 1   
    12     6     7 1   
    13     6    15 1   
    14     6    16 1   
    15     7    10 1   
    16     7    17 1   
    17     7    18 1   
    18     8     9 1   
    19     8    10 1   
    20     8    19 1   
    21     8    20 1   
    22     9    21 1   
    23     9    22 1   
@<TRIPOS>SUBSTRUCTURE
     1 8AS         1 TEMP              0 ****  ****    0 ROOT
