@<TRIPOS>MOLECULE
8AS
   23    23     1     0     0
SMALL
abcg2


@<TRIPOS>ATOM
      1 O1          -3.2880     1.2600    -0.0660 o          1 8AS      -0.740500
      2 N3           0.7710     0.2000     0.2440 n3         1 8AS      -0.721600
      3 C13         -3.0870     0.0400     0.0970 c          1 8AS       0.718000
      4 C14         -1.6330    -0.4270     0.2990 c3         1 8AS      -0.210400
      5 C15         -0.5810     0.5780    -0.1330 c3         1 8AS       0.178800
      6 C16          1.7010     1.2910     0.0240 c6         1 8AS       0.131800
      7 C17          3.0950     0.8960     0.4720 c6         1 8AS       0.151600
      8 C18          2.6500    -1.3330     0.0030 c6         1 8AS       0.151600
      9 C19          1.2440    -0.9860    -0.4460 c6         1 8AS       0.131800
     10 O            3.5460    -0.2620    -0.1970 os         1 8AS      -0.468000
     11 H16         -1.4920    -0.6480     1.3650 hc         1 8AS       0.023700
     12 H17         -1.5070    -1.3820    -0.2170 hc         1 8AS       0.023700
     13 H18         -0.8000     1.5360     0.3420 h1         1 8AS       0.036700
     14 H19         -0.6550     0.7510    -1.2210 h1         1 8AS       0.036700
     15 H20          1.7310     1.5980    -1.0370 h1         1 8AS       0.037200
     16 H21          1.3790     2.1630     0.5990 h1         1 8AS       0.037200
     17 H22          3.8030     1.6970     0.2530 h1         1 8AS       0.037200
     18 H23          3.0950     0.7340     1.5600 h1         1 8AS       0.037200
     19 H24          2.6300    -1.6230     1.0640 h1         1 8AS       0.037200
     20 H25          3.0250    -2.1830    -0.5680 h1         1 8AS       0.037200
     21 H26          0.5950    -1.8340    -0.2210 h1         1 8AS       0.037200
     22 H27          1.2280    -0.8500    -1.5430 h1         1 8AS       0.037200
     23 OXT         -3.9590    -0.8520     0.1370 o          1 8AS      -0.740500
@<TRIPOS>BOND
     1     1     3 1   
     2     2     5 1   
     3     2     6 1   
     4     2     9 1   
     5     3     4 1   
     6     3    23 1   
     7     4     5 1   
     8     4    11 1   
     9     4    12 1   
    10     5    13 1   
    11     5    14 1   
    12     6     7 1   
    13     6    15 1   
    14     6    16 1   
    15     7    10 1   
    16     7    17 1   
    17     7    18 1   
    18     8     9 1   
    19     8    10 1   
    20     8    19 1   
    21     8    20 1   
    22     9    21 1   
    23     9    22 1   
@<TRIPOS>SUBSTRUCTURE
     1 8AS         1 TEMP              0 ****  ****    0 ROOT
