@<TRIPOS>MOLECULE
8AT
   25    26     1     0     0
SMALL
abcg2


@<TRIPOS>ATOM
      1 C10         23.8120    23.7190    16.4790 ca         1 8AT      -0.149000
      2 C13         22.1580    23.6640    14.2080 ca         1 8AT       0.330000
      3 C01         20.2660    24.6520    13.0010 c3         1 8AT       0.208100
      4 N02         21.3260    23.6480    13.0920 na         1 8AT      -0.671200
      5 C03         21.5130    22.7050    12.1090 cc         1 8AT       0.139800
      6 C04         20.6010    22.7040    10.9180 c3         1 8AT      -0.060900
      7 C05         22.5070    21.7820    12.2010 cd         1 8AT      -0.362600
      8 C06         23.4300    21.7070    13.2970 cd         1 8AT       0.538200
      9 N07         24.3600    20.7970    13.2970 n2         1 8AT      -0.783100
     10 C08         23.2050    22.7210    14.3450 ca         1 8AT      -0.226900
     11 C09         24.0100    22.7770    15.4910 ca         1 8AT      -0.059000
     12 C11         22.7800    24.6480    16.3350 ca         1 8AT      -0.062000
     13 C12         21.9650    24.6230    15.2200 ca         1 8AT      -0.175000
     14 H1          24.4490    23.7370    17.3530 ha         1 8AT       0.118000
     15 H2          19.5800    24.5590    13.8430 h1         1 8AT       0.047700
     16 H3          20.6920    25.6560    13.0000 h1         1 8AT       0.047700
     17 H4          19.7060    24.5170    12.0870 h1         1 8AT       0.047700
     18 H5          19.5590    22.5560    11.2090 hc         1 8AT       0.053700
     19 H6          20.6630    23.6430    10.3630 hc         1 8AT       0.053700
     20 H7          20.8890    21.8940    10.2520 hc         1 8AT       0.053700
     21 H8          22.6160    21.0610    11.4030 ha         1 8AT       0.205000
     22 H9          24.9410    20.8620    14.1290 hn         1 8AT       0.366400
     23 H11         24.8120    22.0590    15.6070 ha         1 8AT       0.114000
     24 H12         22.6080    25.3960    17.0980 ha         1 8AT       0.114000
     25 H13         21.1750    25.3530    15.1390 ha         1 8AT       0.114000
@<TRIPOS>BOND
     1     1    11 ar  
     2     1    12 ar  
     3     1    14 1   
     4     2     4 1   
     5     2    10 ar  
     6     2    13 ar  
     7     3     4 1   
     8     3    15 1   
     9     3    16 1   
    10     3    17 1   
    11     4     5 1   
    12     5     6 1   
    13     5     7 2   
    14     6    18 1   
    15     6    19 1   
    16     6    20 1   
    17     7     8 1   
    18     7    21 1   
    19     8     9 2   
    20     8    10 1   
    21     9    22 1   
    22    10    11 ar  
    23    11    23 1   
    24    12    13 ar  
    25    12    24 1   
    26    13    25 1   
@<TRIPOS>SUBSTRUCTURE
     1 8AT         1 TEMP              0 ****  ****    0 ROOT
