@<TRIPOS>MOLECULE
8AT
   25    26     1     0     0
SMALL
No Charge or Current Charge


@<TRIPOS>ATOM
      1 C10         23.7720    23.6390    16.5540 ca         1 8AT      -0.149000
      2 C13         22.1570    23.6350    14.2240 ca         1 8AT       0.330000
      3 C01         20.5440    24.8840    12.8060 c3         1 8AT       0.208100
      4 N02         21.3760    23.6670    13.0430 na         1 8AT      -0.671200
      5 C03         21.3950    22.6010    12.1170 cc         1 8AT       0.139800
      6 C04         20.3520    22.4720    11.0340 c3         1 8AT      -0.060900
      7 C05         22.5110    21.7860    12.1770 cd         1 8AT      -0.362600
      8 C06         23.4730    21.8960    13.2050 cd         1 8AT       0.538200
      9 N07         24.5010    21.1220    13.1630 n2         1 8AT      -0.783100
     10 C08         23.2660    22.7870    14.3230 ca         1 8AT      -0.226900
     11 C09         24.0830    22.7930    15.4810 ca         1 8AT      -0.059000
     12 C11         22.6460    24.4680    16.4840 ca         1 8AT      -0.062000
     13 C12         21.8440    24.4620    15.3320 ca         1 8AT      -0.175000
     14 H1          24.3950    23.6400    17.4460 ha         1 8AT       0.118000
     15 H2          19.5950    24.8020    13.3530 h1         1 8AT       0.047700
     16 H3          21.0780    25.7850    13.1370 h1         1 8AT       0.047700
     17 H4          20.3260    25.0080    11.7380 h1         1 8AT       0.047700
     18 H5          19.3480    22.6770    11.4220 hc         1 8AT       0.053700
     19 H6          20.5530    23.1690    10.2120 hc         1 8AT       0.053700
     20 H7          20.3400    21.4590    10.6170 hc         1 8AT       0.053700
     21 H8          22.6590    21.0320    11.4150 ha         1 8AT       0.205000
     22 H9          25.0970    21.2930    13.9800 hn         1 8AT       0.366400
     23 H11         24.9460    22.1380    15.5710 ha         1 8AT       0.114000
     24 H12         22.3920    25.1140    17.3220 ha         1 8AT       0.114000
     25 H13         20.9740    25.1100    15.3210 ha         1 8AT       0.114000
@<TRIPOS>BOND
     1     1    11 ar  
     2     1    12 ar  
     3     1    14 1   
     4     2     4 1   
     5     2    10 ar  
     6     2    13 ar  
     7     3     4 1   
     8     3    15 1   
     9     3    16 1   
    10     3    17 1   
    11     4     5 1   
    12     5     6 1   
    13     5     7 2   
    14     6    18 1   
    15     6    19 1   
    16     6    20 1   
    17     7     8 1   
    18     7    21 1   
    19     8     9 2   
    20     8    10 1   
    21     9    22 1   
    22    10    11 ar  
    23    11    23 1   
    24    12    13 ar  
    25    12    24 1   
    26    13    25 1   
@<TRIPOS>SUBSTRUCTURE
     1 8AT         1 TEMP              0 ****  ****    0 ROOT
