@<TRIPOS>MOLECULE
8AU
   53    56     1     0     0
SMALL
No Charge or Current Charge


@<TRIPOS>ATOM
      1 C4          -2.2340    -0.2030     0.3220 c6         1 8AU       0.199800
      2 C6          -3.6470     1.6470    -0.7990 cc         1 8AU       0.473300
      3 C8          -1.9010     1.0340     3.1120 cg         1 8AU       0.311700
      4 C15         -2.5970    -2.6400     2.1630 c3         1 8AU      -0.089100
      5 C17          0.2960    -1.8330    -0.3000 ca         1 8AU      -0.060000
      6 C22          2.9830     1.5510    -0.5270 cp         1 8AU      -0.032000
      7 C2          -3.2660     2.2870     1.5110 c2         1 8AU       0.403100
      8 C3          -2.5070     1.2370     1.8380 ce         1 8AU      -0.255900
      9 N9          -1.3710     0.8920     4.1400 n1         1 8AU      -0.499000
     10 C14         -3.2240    -2.0290     0.8940 c3         1 8AU      -0.044700
     11 C18          1.6600    -2.0540    -0.5840 ca         1 8AU      -0.205300
     12 C25          4.1940     1.6370     0.2160 ca         1 8AU       0.134000
     13 C26          5.0280     2.7630     0.0950 ca         1 8AU      -0.105000
     14 C27          4.6750     3.8200    -0.7590 ca         1 8AU      -0.097000
     15 C28          3.4800     3.7570    -1.4920 ca         1 8AU      -0.110000
     16 C29          2.6420     2.6350    -1.3740 ca         1 8AU      -0.094000
     17 C20          2.0650     0.3750    -0.4350 cp         1 8AU      -0.046000
     18 C19          2.5300    -0.9440    -0.6590 ca         1 8AU      -0.037000
     19 C23          2.1860    -3.4700    -0.8390 c3         1 8AU       0.357300
     20 F32          2.1550    -3.7740    -2.1550 f          1 8AU      -0.114667
     21 F31          3.4660    -3.6230    -0.4270 f          1 8AU      -0.114667
     22 F30          1.4590    -4.4140    -0.1980 f          1 8AU      -0.114667
     23 C21          0.6920     0.5610    -0.1560 ca         1 8AU      -0.051000
     24 C16         -0.1840    -0.5310    -0.0860 ca         1 8AU      -0.069300
     25 C24         -4.7390    -1.8110     1.0630 c3         1 8AU      -0.089100
     26 N7          -3.5900     3.3360     2.3330 nv         1 8AU      -0.965000
     27 C5          -2.9340     0.4330    -0.8350 cc         1 8AU      -0.241300
     28 C10         -3.0140     0.0030    -2.1230 cd         1 8AU      -0.089300
     29 C13         -2.4290    -1.2180    -2.7820 c3         1 8AU      -0.036800
     30 N11         -3.7900     0.9790    -2.7750 na         1 8AU      -0.005200
     31 N12         -4.1910     2.0180    -1.9320 nd         1 8AU      -0.511800
     32 O1          -3.8360     2.4740     0.2880 os         1 8AU      -0.334400
     33 H1          -3.0590    -3.6060     2.4000 hc         1 8AU       0.038033
     34 H2          -1.5220    -2.8010     2.0200 hc         1 8AU       0.038033
     35 H3          -2.7310    -1.9710     3.0210 hc         1 8AU       0.038033
     36 H4          -0.4020    -2.6660    -0.2570 ha         1 8AU       0.130000
     37 H5          -3.0880    -2.7550     0.0830 hc         1 8AU       0.039700
     38 H6           5.9480     2.8170     0.6720 ha         1 8AU       0.131000
     39 H7           5.3240     4.6890    -0.8480 ha         1 8AU       0.119000
     40 H8           3.2020     4.5760    -2.1520 ha         1 8AU       0.119000
     41 H9           1.7220     2.5970    -1.9530 ha         1 8AU       0.118000
     42 H10          3.5790    -1.0960    -0.9060 ha         1 8AU       0.138000
     43 H11          0.3040     1.5630     0.0110 ha         1 8AU       0.127000
     44 H12         -5.1730    -1.4230     0.1330 hc         1 8AU       0.038033
     45 H13         -5.2460    -2.7510     1.3110 hc         1 8AU       0.038033
     46 H14         -4.9380    -1.0850     1.8610 hc         1 8AU       0.038033
     47 H15         -3.9310     4.1640     1.8530 hn         1 8AU       0.506500
     48 H16         -2.9470     3.5240     3.0980 hn         1 8AU       0.506500
     49 H17         -2.7020    -2.1300    -2.2390 hc         1 8AU       0.059367
     50 H18         -2.7850    -1.3290    -3.8140 hc         1 8AU       0.059367
     51 H19         -1.3350    -1.1600    -2.8130 hc         1 8AU       0.059367
     52 H20         -4.0540     0.9740    -3.7550 hn         1 8AU       0.380000
     53 Cl3          4.6820     0.3760     1.3500 cl         1 8AU      -0.191000
@<TRIPOS>BOND
     1     1     8 1   
     2     1    10 1   
     3     1    24 1   
     4     1    27 1   
     5     2    27 1   
     6     2    31 2   
     7     2    32 1   
     8     3     8 1   
     9     3     9 3   
    10     4    10 1   
    11     4    33 1   
    12     4    34 1   
    13     4    35 1   
    14     5    11 ar  
    15     5    24 ar  
    16     5    36 1   
    17     6    12 ar  
    18     6    16 ar  
    19     6    17 1   
    20     7     8 2   
    21     7    26 1   
    22     7    32 1   
    23    10    25 1   
    24    10    37 1   
    25    11    18 ar  
    26    11    19 1   
    27    12    13 ar  
    28    12    53 1   
    29    13    14 ar  
    30    13    38 1   
    31    14    15 ar  
    32    14    39 1   
    33    15    16 ar  
    34    15    40 1   
    35    16    41 1   
    36    17    18 ar  
    37    17    23 ar  
    38    18    42 1   
    39    19    20 1   
    40    19    21 1   
    41    19    22 1   
    42    23    24 ar  
    43    23    43 1   
    44    25    44 1   
    45    25    45 1   
    46    25    46 1   
    47    26    47 1   
    48    26    48 1   
    49    27    28 2   
    50    28    29 1   
    51    28    30 1   
    52    29    49 1   
    53    29    50 1   
    54    29    51 1   
    55    30    31 1   
    56    30    52 1   
@<TRIPOS>SUBSTRUCTURE
     1 8AU         1 TEMP              0 ****  ****    0 ROOT
