@<TRIPOS>MOLECULE
8AU
   53    56     1     0     0
SMALL
abcg2


@<TRIPOS>ATOM
      1 C4          -2.0260    -0.2970     0.4280 c6         1 8AU       0.199800
      2 C6          -3.3590     1.4960    -0.7720 cc         1 8AU       0.473300
      3 C8          -1.3730     0.6350     2.6860 cg         1 8AU       0.311700
      4 C15         -2.4230    -2.2100     2.1160 c3         1 8AU      -0.089100
      5 C17         -0.0480    -1.8610    -0.0680 ca         1 8AU      -0.060000
      6 C22          2.5360     1.5000    -0.4670 cp         1 8AU      -0.032000
      7 C2          -2.9770     1.8580     1.4550 c2         1 8AU       0.403100
      8 C3          -2.1490     0.7640     1.5200 ce         1 8AU      -0.255900
      9 N9          -0.7210     0.5600     3.6400 n1         1 8AU      -0.499000
     10 C14         -2.8440    -1.5710     0.7930 c3         1 8AU      -0.044700
     11 C18          1.2940    -2.0490    -0.3950 ca         1 8AU      -0.205300
     12 C25          3.7180     1.6950     0.2460 ca         1 8AU       0.134000
     13 C26          4.5080     2.8180     0.0530 ca         1 8AU      -0.105000
     14 C27          4.1190     3.7800    -0.8670 ca         1 8AU      -0.097000
     15 C28          2.9410     3.6170    -1.5820 ca         1 8AU      -0.110000
     16 C29          2.1640     2.4880    -1.3790 ca         1 8AU      -0.094000
     17 C20          1.6670     0.3160    -0.2940 cp         1 8AU      -0.046000
     18 C19          2.1540    -0.9740    -0.5080 ca         1 8AU      -0.037000
     19 C23          1.7650    -3.4470    -0.6420 c3         1 8AU       0.357300
     20 F32          1.1530    -3.9950    -1.7020 f          1 8AU      -0.114667
     21 F31          3.0790    -3.5200    -0.8690 f          1 8AU      -0.114667
     22 F30          1.5040    -4.2480     0.4020 f          1 8AU      -0.114667
     23 C21          0.3310     0.4900     0.0310 ca         1 8AU      -0.051000
     24 C16         -0.5470    -0.5880     0.1530 ca         1 8AU      -0.069300
     25 C24         -4.3450    -1.3000     0.8280 c3         1 8AU      -0.089100
     26 N7          -3.2360     2.7040     2.4580 nv         1 8AU      -0.965000
     27 C5          -2.5910     0.3390    -0.8050 cc         1 8AU      -0.241300
     28 C10         -2.5650     0.0130    -2.1500 cd         1 8AU      -0.089300
     29 C13         -1.9020    -1.0940    -2.8860 c3         1 8AU      -0.036800
     30 N11         -3.2940     0.9620    -2.7640 na         1 8AU      -0.005200
     31 N12         -3.7920     1.8890    -1.9400 nd         1 8AU      -0.511800
     32 O1          -3.6610     2.1930     0.3490 os         1 8AU      -0.334400
     33 H1          -2.8480    -3.2110     2.1950 hc         1 8AU       0.038033
     34 H2          -1.3430    -2.3060     2.2300 hc         1 8AU       0.038033
     35 H3          -2.7940    -1.6360     2.9660 hc         1 8AU       0.038033
     36 H4          -0.6990    -2.7220    -0.0020 ha         1 8AU       0.130000
     37 H5          -2.6750    -2.2960    -0.0120 hc         1 8AU       0.039700
     38 H6           5.4190     2.9440     0.6220 ha         1 8AU       0.131000
     39 H7           4.7380     4.6540    -1.0170 ha         1 8AU       0.119000
     40 H8           2.6290     4.3640    -2.2990 ha         1 8AU       0.119000
     41 H9           1.2520     2.3570    -1.9470 ha         1 8AU       0.118000
     42 H10          3.1910    -1.1150    -0.7790 ha         1 8AU       0.138000
     43 H11         -0.0400     1.4950     0.1950 ha         1 8AU       0.127000
     44 H12         -4.7370    -0.9890    -0.1390 hc         1 8AU       0.038033
     45 H13         -4.8750    -2.2080     1.1170 hc         1 8AU       0.038033
     46 H14         -4.5940    -0.5320     1.5630 hc         1 8AU       0.038033
     47 H15         -3.6130     3.6160     2.2550 hn         1 8AU       0.506500
     48 H16         -2.7590     2.6060     3.3380 hn         1 8AU       0.506500
     49 H17         -2.2080    -2.0650    -2.4990 hc         1 8AU       0.059367
     50 H18         -2.1440    -1.0640    -3.9470 hc         1 8AU       0.059367
     51 H19         -0.8180    -1.0310    -2.7860 hc         1 8AU       0.059367
     52 H20         -3.4760     1.0320    -3.7520 hn         1 8AU       0.380000
     53 CL3          4.2170     0.5450     1.4460 cl         1 8AU      -0.191000
@<TRIPOS>BOND
     1     1     8 1   
     2     1    10 1   
     3     1    24 1   
     4     1    27 1   
     5     2    27 1   
     6     2    31 2   
     7     2    32 1   
     8     3     8 1   
     9     3     9 3   
    10     4    10 1   
    11     4    33 1   
    12     4    34 1   
    13     4    35 1   
    14     5    11 ar  
    15     5    24 ar  
    16     5    36 1   
    17     6    12 ar  
    18     6    16 ar  
    19     6    17 1   
    20     7     8 2   
    21     7    26 1   
    22     7    32 1   
    23    10    25 1   
    24    10    37 1   
    25    11    18 ar  
    26    11    19 1   
    27    12    13 ar  
    28    12    53 1   
    29    13    14 ar  
    30    13    38 1   
    31    14    15 ar  
    32    14    39 1   
    33    15    16 ar  
    34    15    40 1   
    35    16    41 1   
    36    17    18 ar  
    37    17    23 ar  
    38    18    42 1   
    39    19    20 1   
    40    19    21 1   
    41    19    22 1   
    42    23    24 ar  
    43    23    43 1   
    44    25    44 1   
    45    25    45 1   
    46    25    46 1   
    47    26    47 1   
    48    26    48 1   
    49    27    28 2   
    50    28    29 1   
    51    28    30 1   
    52    29    49 1   
    53    29    50 1   
    54    29    51 1   
    55    30    31 1   
    56    30    52 1   
@<TRIPOS>SUBSTRUCTURE
     1 8AU         1 TEMP              0 ****  ****    0 ROOT
