@<TRIPOS>MOLECULE
8AV
   28    28     1     0     0
SMALL
No Charge or Current Charge


@<TRIPOS>ATOM
      1 N1          -1.9010     1.6400     0.1890 n8         1 8AV      -0.981200
      2 N2          -3.7200    -0.5480    -0.2340 n8         1 8AV      -1.008200
      3 C11         -1.3430     0.3390    -0.2390 c3         1 8AV       0.158500
      4 C12         -2.3310    -0.7680     0.2520 c3         1 8AV       0.105800
      5 C20          0.1480     0.1480     0.2260 c6         1 8AV      -0.055700
      6 C25          1.0740     1.2920    -0.3000 c6         1 8AV      -0.068900
      7 C24          2.5430     1.1090     0.1540 c6         1 8AV      -0.073900
      8 C23          3.0980    -0.2650    -0.2850 c6         1 8AV      -0.074400
      9 C22          2.2060    -1.4100     0.2440 c6         1 8AV      -0.073900
     10 C21          0.7330    -1.2340    -0.2060 c6         1 8AV      -0.068900
     11 H2          -2.9200     1.5220     0.1150 hn         1 8AV       0.397000
     12 H6          -3.7330    -0.6190    -1.2590 hn         1 8AV       0.396000
     13 H13         -1.3510     0.3200    -1.3380 h1         1 8AV       0.057700
     14 H14         -2.3410    -0.7980     1.3510 h1         1 8AV       0.032200
     15 H15         -2.0040    -1.7500    -0.1140 h1         1 8AV       0.032200
     16 H38          0.1410     0.1860     1.3240 hc         1 8AV       0.039700
     17 H39          1.0320     1.3270    -1.3980 hc         1 8AV       0.042200
     18 H40          0.7180     2.2690     0.0530 hc         1 8AV       0.042200
     19 H41          3.1650     1.9120    -0.2650 hc         1 8AV       0.036700
     20 H42          2.6070     1.2030     1.2470 hc         1 8AV       0.036700
     21 H43          3.1530    -0.3110    -1.3810 hc         1 8AV       0.037700
     22 H44          4.1250    -0.3890     0.0860 hc         1 8AV       0.037700
     23 H45          2.5900    -2.3750    -0.1130 hc         1 8AV       0.036700
     24 H46          2.2550    -1.4420     1.3410 hc         1 8AV       0.036700
     25 H47          0.1450    -2.0540     0.2250 hc         1 8AV       0.042200
     26 H48          0.6670    -1.3420    -1.2980 hc         1 8AV       0.042200
     27 H1          -4.3110    -1.3340     0.0660 hn         1 8AV       0.396000
     28 H3          -1.7600     1.7340     1.1990 hn         1 8AV       0.397000
@<TRIPOS>BOND
     1     1     3 1   
     2     1    11 1   
     3     1    28 1   
     4     2     4 1   
     5     2    12 1   
     6     2    27 1   
     7     3     4 1   
     8     3     5 1   
     9     3    13 1   
    10     4    14 1   
    11     4    15 1   
    12     5     6 1   
    13     5    10 1   
    14     5    16 1   
    15     6     7 1   
    16     6    17 1   
    17     6    18 1   
    18     7     8 1   
    19     7    19 1   
    20     7    20 1   
    21     8     9 1   
    22     8    21 1   
    23     8    22 1   
    24     9    10 1   
    25     9    23 1   
    26     9    24 1   
    27    10    25 1   
    28    10    26 1   
@<TRIPOS>SUBSTRUCTURE
     1 8AV         1 TEMP              0 ****  ****    0 ROOT
