@<TRIPOS>MOLECULE
8AV
   28    28     1     0     0
SMALL
abcg2


@<TRIPOS>ATOM
      1 N1          -1.8050     1.6380     0.1690 n8         1 8AV      -0.981200
      2 N2          -3.6220    -0.5400    -0.2280 n8         1 8AV      -1.008200
      3 C11         -1.3230     0.3250    -0.2450 c3         1 8AV       0.158500
      4 C12         -2.2570    -0.7990     0.2180 c3         1 8AV       0.105800
      5 C20          0.1260     0.1270     0.2230 c6         1 8AV      -0.055700
      6 C25          1.0270     1.2630    -0.2720 c6         1 8AV      -0.068900
      7 C24          2.4780     1.0930     0.1670 c6         1 8AV      -0.073900
      8 C23          3.0400    -0.2520    -0.2750 c6         1 8AV      -0.074400
      9 C22          2.1630    -1.3900     0.2290 c6         1 8AV      -0.073900
     10 C21          0.7100    -1.2220    -0.2050 c6         1 8AV      -0.068900
     11 H2          -2.8050     1.6610    -0.0010 hn         1 8AV       0.397000
     12 H6          -3.6800    -0.7010    -1.2270 hn         1 8AV       0.396000
     13 H13         -1.3170     0.3130    -1.3450 h1         1 8AV       0.057700
     14 H14         -2.2520    -0.8280     1.3130 h1         1 8AV       0.032200
     15 H15         -1.8840    -1.7710    -0.1240 h1         1 8AV       0.032200
     16 H38          0.1250     0.1530     1.3240 hc         1 8AV       0.039700
     17 H39          0.9820     1.2950    -1.3680 hc         1 8AV       0.042200
     18 H40          0.6420     2.2220     0.0760 hc         1 8AV       0.042200
     19 H41          3.0850     1.9100    -0.2310 hc         1 8AV       0.036700
     20 H42          2.5380     1.1680     1.2590 hc         1 8AV       0.036700
     21 H43          3.0820    -0.2850    -1.3690 hc         1 8AV       0.037700
     22 H44          4.0660    -0.3760     0.0800 hc         1 8AV       0.037700
     23 H45          2.5440    -2.3510    -0.1260 hc         1 8AV       0.036700
     24 H46          2.2110    -1.4270     1.3230 hc         1 8AV       0.036700
     25 H47          0.1250    -2.0480     0.2060 hc         1 8AV       0.042200
     26 H48          0.6430    -1.3100    -1.2970 hc         1 8AV       0.042200
     27 H1          -4.2490    -1.2130     0.1910 hn         1 8AV       0.396000
     28 H3          -1.7090     1.7110     1.1770 hn         1 8AV       0.397000
@<TRIPOS>BOND
     1     1     3 1   
     2     1    11 1   
     3     1    28 1   
     4     2     4 1   
     5     2    12 1   
     6     2    27 1   
     7     3     4 1   
     8     3     5 1   
     9     3    13 1   
    10     4    14 1   
    11     4    15 1   
    12     5     6 1   
    13     5    10 1   
    14     5    16 1   
    15     6     7 1   
    16     6    17 1   
    17     6    18 1   
    18     7     8 1   
    19     7    19 1   
    20     7    20 1   
    21     8     9 1   
    22     8    21 1   
    23     8    22 1   
    24     9    10 1   
    25     9    23 1   
    26     9    24 1   
    27    10    25 1   
    28    10    26 1   
@<TRIPOS>SUBSTRUCTURE
     1 8AV         1 TEMP              0 ****  ****    0 ROOT
