@<TRIPOS>MOLECULE
8AW
   70    72     1     0     0
SMALL
No Charge or Current Charge


@<TRIPOS>ATOM
      1 O06         -4.6800    -1.3550     0.6700 o          1 8AW      -0.607100
      2 C05         -4.1260    -0.2910     0.9140 c          1 8AW       0.603100
      3 C03         -4.4770     0.5680     2.1460 c3         1 8AW      -0.137700
      4 C02         -4.1660    -0.2020     3.4580 c3         1 8AW      -0.066400
      5 C01         -4.2670     0.6510     4.7400 c3         1 8AW      -0.090100
      6 C04         -5.9410     1.0680     2.0570 c3         1 8AW      -0.085100
      7 N07         -3.1370     0.2310     0.1110 ns         1 8AW      -0.503900
      8 C08         -2.6950    -0.3440    -1.1640 c3         1 8AW       0.109700
      9 C29         -3.1090     0.5760    -2.3380 c3         1 8AW      -0.049100
     10 C30         -4.5990     0.9100    -2.3290 ca         1 8AW      -0.080300
     11 C31         -5.5450    -0.0600    -2.7120 ca         1 8AW      -0.103000
     12 C32         -6.9180     0.2370    -2.6810 ca         1 8AW      -0.109000
     13 C33         -7.3540     1.5070    -2.2670 ca         1 8AW      -0.111000
     14 C34         -6.4160     2.4790    -1.8840 ca         1 8AW      -0.109000
     15 C35         -5.0420     2.1820    -1.9150 ca         1 8AW      -0.103000
     16 C09         -1.1760    -0.6350    -1.1440 c3         1 8AW      -0.085400
     17 C10         -0.7440    -1.6290    -0.0340 c3         1 8AW      -0.084400
     18 C11          0.7570    -2.0000    -0.0750 c3         1 8AW       0.123700
     19 C12          1.1300    -3.0690     0.9810 c3         1 8AW      -0.052100
     20 C13          2.6040    -3.4590     0.9350 ca         1 8AW      -0.084300
     21 C14          3.0750    -4.3280    -0.0680 ca         1 8AW      -0.100000
     22 C15          4.4360    -4.6780    -0.1220 ca         1 8AW      -0.107000
     23 C16          5.3340    -4.1610     0.8270 ca         1 8AW      -0.108000
     24 C17          4.8700    -3.2930     1.8300 ca         1 8AW      -0.107000
     25 C18          3.5090    -2.9430     1.8850 ca         1 8AW      -0.100000
     26 N19          1.5970    -0.8090     0.0780 ns         1 8AW      -0.494900
     27 C20          2.6200    -0.4600    -0.7540 c          1 8AW       0.643100
     28 O21          2.9410    -1.0520    -1.7730 o          1 8AW      -0.537000
     29 O22          3.2120     0.6630    -0.2680 os         1 8AW      -0.466100
     30 C23          4.3270     1.1890    -0.9990 c3         1 8AW       0.261900
     31 C24          4.8100     2.4030    -0.2620 cc         1 8AW      -0.249300
     32 C25          5.5090     2.4290     0.9220 cd         1 8AW       0.286900
     33 N26          5.8310     3.7000     1.3830 nd         1 8AW      -0.631000
     34 C27          5.3630     4.6120     0.5380 cc         1 8AW       0.411300
     35 S28          4.5110     4.0100    -0.8600 ss         1 8AW      -0.009400
     36 H1          -3.8330     1.4570     2.1270 hc         1 8AW       0.043700
     37 H2          -4.8370    -1.0660     3.5470 hc         1 8AW       0.050200
     38 H3          -3.1470    -0.6050     3.3950 hc         1 8AW       0.050200
     39 H4          -5.2960     0.9860     4.9130 hc         1 8AW       0.032700
     40 H5          -3.9530     0.0640     5.6120 hc         1 8AW       0.032700
     41 H6          -3.6190     1.5340     4.6720 hc         1 8AW       0.032700
     42 H7          -6.6460     0.2310     2.1380 hc         1 8AW       0.043700
     43 H8          -6.1650     1.7870     2.8530 hc         1 8AW       0.043700
     44 H9          -6.1170     1.5690     1.0970 hc         1 8AW       0.043700
     45 H10         -2.7400     1.1150     0.4000 hn         1 8AW       0.306500
     46 H11         -3.2080    -1.3040    -1.3120 h1         1 8AW       0.085700
     47 H12         -2.5150     1.4970    -2.2980 hc         1 8AW       0.052200
     48 H13         -2.8460     0.0870    -3.2840 hc         1 8AW       0.052200
     49 H14         -5.2160    -1.0480    -3.0280 ha         1 8AW       0.110500
     50 H15         -7.6440    -0.5180    -2.9770 ha         1 8AW       0.113000
     51 H16         -8.4180     1.7360    -2.2420 ha         1 8AW       0.112000
     52 H17         -6.7520     3.4620    -1.5620 ha         1 8AW       0.113000
     53 H18         -4.3240     2.9400    -1.6100 ha         1 8AW       0.110500
     54 H19         -0.8830    -1.0460    -2.1190 hc         1 8AW       0.049700
     55 H20         -0.6330     0.3100    -1.0240 hc         1 8AW       0.049700
     56 H21         -0.9790    -1.2060     0.9510 hc         1 8AW       0.053200
     57 H22         -1.3380    -2.5460    -0.1330 hc         1 8AW       0.053200
     58 H23          0.9560    -2.4380    -1.0640 h1         1 8AW       0.085700
     59 H24          0.8680    -2.6940     1.9780 hc         1 8AW       0.054200
     60 H25          0.5100    -3.9590     0.8200 hc         1 8AW       0.054200
     61 H26          2.3880    -4.7300    -0.8090 ha         1 8AW       0.108500
     62 H27          4.7940    -5.3490    -0.9000 ha         1 8AW       0.112500
     63 H28          6.3870    -4.4310     0.7850 ha         1 8AW       0.112000
     64 H29          5.5640    -2.8900     2.5640 ha         1 8AW       0.112500
     65 H30          3.1600    -2.2670     2.6610 ha         1 8AW       0.108500
     66 H31          1.4590    -0.2110     0.8810 hn         1 8AW       0.320500
     67 H32          5.1390     0.4510    -1.0630 h1         1 8AW       0.064700
     68 H33          4.0320     1.4650    -2.0210 h1         1 8AW       0.064700
     69 H34          5.8140     1.5610     1.4940 h4         1 8AW       0.045100
     70 H35          5.4770     5.6820     0.6640 h5         1 8AW       0.053100
@<TRIPOS>BOND
     1     1     2 2   
     2     2     3 1   
     3     2     7 1   
     4     3     4 1   
     5     3     6 1   
     6     3    36 1   
     7     4     5 1   
     8     4    37 1   
     9     4    38 1   
    10     5    39 1   
    11     5    40 1   
    12     5    41 1   
    13     6    42 1   
    14     6    43 1   
    15     6    44 1   
    16     7     8 1   
    17     7    45 1   
    18     8     9 1   
    19     8    16 1   
    20     8    46 1   
    21     9    10 1   
    22     9    47 1   
    23     9    48 1   
    24    10    11 ar  
    25    10    15 ar  
    26    11    12 ar  
    27    11    49 1   
    28    12    13 ar  
    29    12    50 1   
    30    13    14 ar  
    31    13    51 1   
    32    14    15 ar  
    33    14    52 1   
    34    15    53 1   
    35    16    17 1   
    36    16    54 1   
    37    16    55 1   
    38    17    18 1   
    39    17    56 1   
    40    17    57 1   
    41    18    19 1   
    42    18    26 1   
    43    18    58 1   
    44    19    20 1   
    45    19    59 1   
    46    19    60 1   
    47    20    21 ar  
    48    20    25 ar  
    49    21    22 ar  
    50    21    61 1   
    51    22    23 ar  
    52    22    62 1   
    53    23    24 ar  
    54    23    63 1   
    55    24    25 ar  
    56    24    64 1   
    57    25    65 1   
    58    26    27 1   
    59    26    66 1   
    60    27    28 2   
    61    27    29 1   
    62    29    30 1   
    63    30    31 1   
    64    30    67 1   
    65    30    68 1   
    66    31    32 2   
    67    31    35 1   
    68    32    33 1   
    69    32    69 1   
    70    33    34 2   
    71    34    35 1   
    72    34    70 1   
@<TRIPOS>SUBSTRUCTURE
     1 8AW         1 TEMP              0 ****  ****    0 ROOT
