@<TRIPOS>MOLECULE
8AW
   70    72     1     0     0
SMALL
bcc


@<TRIPOS>ATOM
      1 O06         -4.5640    -1.3700     0.8220 o          1 8AW      -0.607100
      2 C05         -3.9990    -0.2900     0.9300 c          1 8AW       0.670100
      3 C03         -4.3270     0.6650     2.0630 c3         1 8AW      -0.137700
      4 C02         -4.1740    -0.0430     3.4130 c3         1 8AW      -0.066400
      5 C01         -4.3260     0.8910     4.6040 c3         1 8AW      -0.090100
      6 C04         -5.7380     1.2100     1.8380 c3         1 8AW      -0.085100
      7 N07         -3.0650     0.1470     0.0660 ns         1 8AW      -0.570900
      8 C08         -2.7200    -0.5100    -1.1770 c3         1 8AW       0.109700
      9 C29         -3.1390     0.3620    -2.3690 c3         1 8AW      -0.049100
     10 C30         -4.5730     0.8040    -2.2840 ca         1 8AW      -0.080300
     11 C31         -5.6100    -0.1190    -2.4110 ca         1 8AW      -0.121000
     12 C32         -6.9340     0.2780    -2.2940 ca         1 8AW      -0.127000
     13 C33         -7.2460     1.6090    -2.0460 ca         1 8AW      -0.129000
     14 C34         -6.2230     2.5380    -1.9210 ca         1 8AW      -0.127000
     15 C35         -4.8990     2.1340    -2.0380 ca         1 8AW      -0.121000
     16 C09         -1.2310    -0.8380    -1.2340 c3         1 8AW      -0.085400
     17 C10         -0.7860    -1.8170    -0.1590 c3         1 8AW      -0.084400
     18 C11          0.7120    -2.1020    -0.1880 c3         1 8AW       0.123700
     19 C12          1.0900    -3.2030     0.8160 c3         1 8AW      -0.052100
     20 C13          2.5670    -3.4700     0.8350 ca         1 8AW      -0.084300
     21 C14          3.1450    -4.3250    -0.1010 ca         1 8AW      -0.118000
     22 C15          4.5170    -4.5320    -0.1240 ca         1 8AW      -0.125000
     23 C16          5.3360    -3.8810     0.7890 ca         1 8AW      -0.126000
     24 C17          4.7720    -3.0260     1.7260 ca         1 8AW      -0.125000
     25 C18          3.3980    -2.8260     1.7480 ca         1 8AW      -0.118000
     26 N19          1.4610    -0.8910     0.0770 ns         1 8AW      -0.561900
     27 C20          2.5210    -0.4950    -0.6460 c          1 8AW       0.759100
     28 O21          2.8990    -0.9830    -1.6900 o          1 8AW      -0.586000
     29 O22          3.1200     0.5590    -0.0650 os         1 8AW      -0.442900
     30 C23          4.2170     1.1320    -0.7690 c3         1 8AW       0.238700
     31 C24          4.6890     2.3000     0.0170 cc         1 8AW      -0.169700
     32 C25          5.9480     2.5650     0.4570 cd         1 8AW       0.352200
     33 N26          6.1120     3.7420     1.1260 nd         1 8AW      -0.631000
     34 C27          4.9900     4.3800     1.2090 cc         1 8AW       0.411300
     35 S28          3.6520     3.5960     0.4700 ss         1 8AW      -0.154300
     36 H1          -3.6260     1.5080     2.0410 hc         1 8AW       0.043700
     37 H2          -4.9050    -0.8530     3.4790 hc         1 8AW       0.050200
     38 H3          -3.1880    -0.5150     3.4570 hc         1 8AW       0.050200
     39 H4          -5.3160     1.3480     4.6440 hc         1 8AW       0.032700
     40 H5          -4.1820     0.3510     5.5410 hc         1 8AW       0.032700
     41 H6          -3.5910     1.6970     4.5720 hc         1 8AW       0.032700
     42 H7          -6.4800     0.4150     1.9220 hc         1 8AW       0.043700
     43 H8          -5.9820     1.9770     2.5720 hc         1 8AW       0.043700
     44 H9          -5.8370     1.6570     0.8480 hc         1 8AW       0.043700
     45 H10         -2.6670     1.0590     0.2280 hn         1 8AW       0.306500
     46 H11         -3.2900    -1.4390    -1.2060 h1         1 8AW       0.085700
     47 H12         -2.4840     1.2370    -2.4190 hc         1 8AW       0.052200
     48 H13         -2.9690    -0.2080    -3.2860 hc         1 8AW       0.052200
     49 H14         -5.3820    -1.1600    -2.6060 ha         1 8AW       0.128500
     50 H15         -7.7250    -0.4540    -2.3960 ha         1 8AW       0.131000
     51 H16         -8.2800     1.9180    -1.9530 ha         1 8AW       0.130000
     52 H17         -6.4540     3.5780    -1.7290 ha         1 8AW       0.131000
     53 H18         -4.1070     2.8670    -1.9390 ha         1 8AW       0.128500
     54 H19         -1.0080    -1.2550    -2.2210 hc         1 8AW       0.049700
     55 H20         -0.6550     0.0900    -1.1620 hc         1 8AW       0.049700
     56 H21         -1.0610    -1.4430     0.8330 hc         1 8AW       0.053200
     57 H22         -1.3170    -2.7650    -0.2860 hc         1 8AW       0.053200
     58 H23          0.9890    -2.4380    -1.1900 h1         1 8AW       0.085700
     59 H24          0.7460    -2.9080     1.8120 hc         1 8AW       0.054200
     60 H25          0.5420    -4.1090     0.5480 hc         1 8AW       0.054200
     61 H26          2.5120    -4.8330    -0.8190 ha         1 8AW       0.126500
     62 H27          4.9480    -5.2040    -0.8560 ha         1 8AW       0.130500
     63 H28          6.4060    -4.0420     0.7730 ha         1 8AW       0.130000
     64 H29          5.4010    -2.5150     2.4440 ha         1 8AW       0.130500
     65 H30          2.9650    -2.1620     2.4870 ha         1 8AW       0.126500
     66 H31          1.2790    -0.4150     0.9490 hn         1 8AW       0.320500
     67 H32          5.0370     0.4180    -0.8750 h1         1 8AW       0.064700
     68 H33          3.9080     1.4380    -1.7710 h1         1 8AW       0.064700
     69 H34          6.7940     1.9090     0.3040 h4         1 8AW       0.045100
     70 H35          4.8690     5.3320     1.7060 h5         1 8AW       0.053100
@<TRIPOS>BOND
     1     1     2 2   
     2     2     3 1   
     3     2     7 1   
     4     3     4 1   
     5     3     6 1   
     6     3    36 1   
     7     4     5 1   
     8     4    37 1   
     9     4    38 1   
    10     5    39 1   
    11     5    40 1   
    12     5    41 1   
    13     6    42 1   
    14     6    43 1   
    15     6    44 1   
    16     7     8 1   
    17     7    45 1   
    18     8     9 1   
    19     8    16 1   
    20     8    46 1   
    21     9    10 1   
    22     9    47 1   
    23     9    48 1   
    24    10    11 ar  
    25    10    15 ar  
    26    11    12 ar  
    27    11    49 1   
    28    12    13 ar  
    29    12    50 1   
    30    13    14 ar  
    31    13    51 1   
    32    14    15 ar  
    33    14    52 1   
    34    15    53 1   
    35    16    17 1   
    36    16    54 1   
    37    16    55 1   
    38    17    18 1   
    39    17    56 1   
    40    17    57 1   
    41    18    19 1   
    42    18    26 1   
    43    18    58 1   
    44    19    20 1   
    45    19    59 1   
    46    19    60 1   
    47    20    21 ar  
    48    20    25 ar  
    49    21    22 ar  
    50    21    61 1   
    51    22    23 ar  
    52    22    62 1   
    53    23    24 ar  
    54    23    63 1   
    55    24    25 ar  
    56    24    64 1   
    57    25    65 1   
    58    26    27 1   
    59    26    66 1   
    60    27    28 2   
    61    27    29 1   
    62    29    30 1   
    63    30    31 1   
    64    30    67 1   
    65    30    68 1   
    66    31    32 2   
    67    31    35 1   
    68    32    33 1   
    69    32    69 1   
    70    33    34 2   
    71    34    35 1   
    72    34    70 1   
@<TRIPOS>SUBSTRUCTURE
     1 8AW         1 TEMP              0 ****  ****    0 ROOT
