@<TRIPOS>MOLECULE
8AX
   56    58     1     0     0
SMALL
abcg2


@<TRIPOS>ATOM
      1 N01          5.6280     0.5900     1.1610 nb         1 8AX      -0.758000
      2 C02          6.6770     1.3910     1.0100 ca         1 8AX       0.600900
      3 N02          7.7710     1.1330     1.7840 nv         1 8AX      -1.056900
      4 C03          6.6620     2.4910     0.1340 ca         1 8AX      -0.233000
      5 C04          5.5190     2.7530    -0.5930 ca         1 8AX       0.001700
      6 C05          4.4180     1.9070    -0.4170 ca         1 8AX      -0.215000
      7 C06          4.5190     0.8430     0.4620 ca         1 8AX       0.394300
      8 C07          5.4550     3.8960    -1.5580 c3         1 8AX      -0.053800
      9 C08          3.3750    -0.1110     0.6680 c3         1 8AX      -0.104700
     10 O09          1.3880    -2.0070     0.5840 os         1 8AX      -0.463000
     11 N1           3.7540    -2.9830    -1.7370 n7         1 8AX      -0.821400
     12 C10          0.4140    -2.8900     1.0850 c3         1 8AX       0.156600
     13 C11         -0.8340    -2.0980     1.4030 c3         1 8AX       0.160800
     14 N12         -1.4130    -1.5110     0.2070 n7         1 8AX      -0.846400
     15 C13         -2.5260    -0.6490     0.5220 c3         1 8AX       0.110800
     16 C14         -3.2800    -0.2080    -0.7170 c3         1 8AX       0.242300
     17 F15         -2.4160     0.3980    -1.5870 f          1 8AX      -0.110000
     18 F16         -3.7620    -1.2960    -1.3830 f          1 8AX      -0.110000
     19 C2           3.8510    -1.5680    -1.4090 c5         1 8AX       0.135800
     20 C21         -4.4120     0.7310    -0.3930 ca         1 8AX      -0.154300
     21 C22         -5.6580     0.2100    -0.0660 ca         1 8AX      -0.071000
     22 C23         -6.6800     1.0770     0.2850 ca         1 8AX       0.112000
     23 CL23        -8.2330     0.4250     0.6930 cl         1 8AX      -0.196000
     24 C24         -6.4890     2.4490     0.3150 ca         1 8AX      -0.086000
     25 C25         -5.2390     2.9540    -0.0090 ca         1 8AX      -0.107000
     26 C26         -4.2010     2.1040    -0.3610 ca         1 8AX      -0.076000
     27 C3           3.7000    -1.4940     0.1130 c5         1 8AX      -0.090700
     28 C4           2.6590    -2.5870     0.4110 c5         1 8AX       0.143300
     29 C5           2.7320    -3.5110    -0.8350 c5         1 8AX       0.101800
     30 HN02         7.8350     0.2050     2.1710 hn         1 8AX       0.468000
     31 HN0A         8.6530     1.5180     1.4890 hn         1 8AX       0.468000
     32 H03          7.5400     3.1180     0.0360 ha         1 8AX       0.118000
     33 H05          3.4980     2.0770    -0.9640 ha         1 8AX       0.123000
     34 H07          5.3990     3.5280    -2.5840 hc         1 8AX       0.046700
     35 H07A         4.5670     4.5050    -1.3900 hc         1 8AX       0.046700
     36 H07B         6.3300     4.5400    -1.4820 hc         1 8AX       0.046700
     37 H08          3.1660    -0.1820     1.7390 hc         1 8AX       0.062700
     38 H08A         2.4770     0.2850     0.1930 hc         1 8AX       0.062700
     39 HN1          4.6400    -3.4170    -1.5090 hn         1 8AX       0.395000
     40 H10          0.1780    -3.6820     0.3600 h1         1 8AX       0.033700
     41 H10A         0.7680    -3.3820     2.0010 h1         1 8AX       0.033700
     42 H11         -1.5620    -2.7770     1.8530 h1         1 8AX       0.037700
     43 H11A        -0.5930    -1.3460     2.1710 h1         1 8AX       0.037700
     44 HN12        -0.6970    -0.9740    -0.2660 hn         1 8AX       0.435000
     45 H13         -3.2330    -1.1920     1.1570 h1         1 8AX       0.050700
     46 H13A        -2.2440     0.2520     1.0880 h1         1 8AX       0.050700
     47 H2           4.7900    -1.1490    -1.7720 h1         1 8AX       0.061200
     48 H2'A         3.0370    -1.0180    -1.8970 h1         1 8AX       0.061200
     49 H22         -5.8370    -0.8570    -0.0740 ha         1 8AX       0.143000
     50 H24         -7.2980     3.1120     0.5890 ha         1 8AX       0.132000
     51 H25         -5.0760     4.0230     0.0120 ha         1 8AX       0.122000
     52 H26         -3.2350     2.5230    -0.6060 ha         1 8AX       0.130000
     53 H3           4.6470    -1.8230     0.5550 hc         1 8AX       0.064700
     54 H4           2.9290    -3.1320     1.3260 h1         1 8AX       0.039700
     55 H5           1.7590    -3.5000    -1.3370 h1         1 8AX       0.059700
     56 H5'A         2.9520    -4.5480    -0.5820 h1         1 8AX       0.059700
@<TRIPOS>BOND
     1     1     2 ar  
     2     1     7 ar  
     3     2     3 1   
     4     2     4 ar  
     5     3    30 1   
     6     3    31 1   
     7     4     5 ar  
     8     4    32 1   
     9     5     6 ar  
    10     5     8 1   
    11     6     7 ar  
    12     6    33 1   
    13     7     9 1   
    14     8    34 1   
    15     8    35 1   
    16     8    36 1   
    17     9    27 1   
    18     9    37 1   
    19     9    38 1   
    20    10    12 1   
    21    10    28 1   
    22    11    19 1   
    23    11    29 1   
    24    11    39 1   
    25    12    13 1   
    26    12    40 1   
    27    12    41 1   
    28    13    14 1   
    29    13    42 1   
    30    13    43 1   
    31    14    15 1   
    32    14    44 1   
    33    15    16 1   
    34    15    45 1   
    35    15    46 1   
    36    16    17 1   
    37    16    18 1   
    38    16    20 1   
    39    19    27 1   
    40    19    47 1   
    41    19    48 1   
    42    20    21 ar  
    43    20    26 ar  
    44    21    22 ar  
    45    21    49 1   
    46    22    23 1   
    47    22    24 ar  
    48    24    25 ar  
    49    24    50 1   
    50    25    26 ar  
    51    25    51 1   
    52    26    52 1   
    53    27    28 1   
    54    27    53 1   
    55    28    29 1   
    56    28    54 1   
    57    29    55 1   
    58    29    56 1   
@<TRIPOS>SUBSTRUCTURE
     1 8AX         1 TEMP              0 ****  ****    0 ROOT
