@<TRIPOS>MOLECULE
8AX
   56    58     1     0     0
SMALL
No Charge or Current Charge


@<TRIPOS>ATOM
      1 N01          5.6990     0.7610     1.2250 nb         1 8AX      -0.758000
      2 C02          6.5340     1.7290     0.8810 ca         1 8AX       0.600900
      3 N02          7.6960     1.6130     1.5270 nv         1 8AX      -1.056900
      4 C03          6.2630     2.7380    -0.0450 ca         1 8AX      -0.233000
      5 C04          5.0050     2.7500    -0.6670 ca         1 8AX       0.001700
      6 C05          4.1020     1.7340    -0.3150 ca         1 8AX      -0.215000
      7 C06          4.4840     0.7620     0.6310 ca         1 8AX       0.394300
      8 C07          4.6370     3.8150    -1.6870 c3         1 8AX      -0.053800
      9 C08          3.5300    -0.3570     1.0240 c3         1 8AX      -0.104700
     10 O09          1.4410    -2.3280     0.8400 os         1 8AX      -0.463000
     11 N1           3.4600    -2.8910    -1.8160 n7         1 8AX      -0.821400
     12 C10          0.4520    -3.2660     1.3210 c3         1 8AX       0.156600
     13 C11         -0.8650    -2.4920     1.5810 c3         1 8AX       0.160800
     14 N12         -1.3260    -1.8020     0.3560 n7         1 8AX      -0.846400
     15 C13         -2.4380    -0.8320     0.5470 c3         1 8AX       0.110800
     16 C14         -2.8200    -0.0610    -0.7520 c3         1 8AX       0.242300
     17 F15         -1.7150     0.5560    -1.2380 f          1 8AX      -0.110000
     18 F16         -3.1940    -0.9510    -1.7040 f          1 8AX      -0.110000
     19 C2           3.3530    -1.4950    -1.3370 c5         1 8AX       0.135800
     20 C21         -3.9410     0.9500    -0.4710 ca         1 8AX      -0.154300
     21 C22         -5.2970     0.5670    -0.5780 ca         1 8AX      -0.071000
     22 C23         -6.3220     1.4890    -0.3070 ca         1 8AX       0.112000
     23 Cl23        -8.0050     0.9960    -0.4480 cl         1 8AX      -0.196000
     24 C24         -6.0080     2.8010     0.0800 ca         1 8AX      -0.086000
     25 C25         -4.6640     3.1910     0.1990 ca         1 8AX      -0.107000
     26 C26         -3.6350     2.2710    -0.0720 ca         1 8AX      -0.076000
     27 C3           3.6890    -1.6450     0.1670 c5         1 8AX      -0.090700
     28 C4           2.7660    -2.8440     0.5450 c5         1 8AX       0.143300
     29 C5           2.7110    -3.6770    -0.7910 c5         1 8AX       0.101800
     30 HN02         7.8390     0.7180     1.9770 hn         1 8AX       0.468000
     31 HN0A         8.5110     2.0480     1.1110 hn         1 8AX       0.468000
     32 H03          7.0090     3.4930    -0.2740 ha         1 8AX       0.118000
     33 H05          3.1160     1.6930    -0.7690 ha         1 8AX       0.123000
     34 H07          4.8680     3.4770    -2.7040 hc         1 8AX       0.046700
     35 H07A         3.5670     4.0520    -1.6460 hc         1 8AX       0.046700
     36 H07B         5.1880     4.7460    -1.5090 hc         1 8AX       0.046700
     37 H08          3.6750    -0.6070     2.0820 hc         1 8AX       0.062700
     38 H08A         2.5020     0.0160     0.9520 hc         1 8AX       0.062700
     39 HN1          4.4510    -3.1600    -1.7690 hn         1 8AX       0.395000
     40 H10          0.2650    -4.0600     0.5860 h1         1 8AX       0.033700
     41 H10A         0.7860    -3.7360     2.2550 h1         1 8AX       0.033700
     42 H11         -1.6310    -3.1920     1.9420 h1         1 8AX       0.037700
     43 H11A        -0.6780    -1.7640     2.3830 h1         1 8AX       0.037700
     44 HN12        -0.5090    -1.2930    -0.0090 hn         1 8AX       0.435000
     45 H13         -3.3330    -1.3520     0.9160 h1         1 8AX       0.050700
     46 H13A        -2.1630    -0.0900     1.3100 h1         1 8AX       0.050700
     47 H2           4.0560    -0.8300    -1.8590 h1         1 8AX       0.061200
     48 H2'A         2.3370    -1.1000    -1.4850 h1         1 8AX       0.061200
     49 H22         -5.5640    -0.4460    -0.8690 ha         1 8AX       0.143000
     50 H24         -6.8040     3.5120     0.2890 ha         1 8AX       0.132000
     51 H25         -4.4180     4.2060     0.5030 ha         1 8AX       0.122000
     52 H26         -2.6000     2.5900     0.0330 ha         1 8AX       0.130000
     53 H3           4.7370    -1.9500     0.2800 hc         1 8AX       0.064700
     54 H4           3.1430    -3.4160     1.4040 h1         1 8AX       0.039700
     55 H5           1.6730    -3.8210    -1.1190 h1         1 8AX       0.059700
     56 H5'A         3.1520    -4.6750    -0.6620 h1         1 8AX       0.059700
@<TRIPOS>BOND
     1     1     2 ar  
     2     1     7 ar  
     3     2     3 1   
     4     2     4 ar  
     5     3    30 1   
     6     3    31 1   
     7     4     5 ar  
     8     4    32 1   
     9     5     6 ar  
    10     5     8 1   
    11     6     7 ar  
    12     6    33 1   
    13     7     9 1   
    14     8    34 1   
    15     8    35 1   
    16     8    36 1   
    17     9    27 1   
    18     9    37 1   
    19     9    38 1   
    20    10    12 1   
    21    10    28 1   
    22    11    19 1   
    23    11    29 1   
    24    11    39 1   
    25    12    13 1   
    26    12    40 1   
    27    12    41 1   
    28    13    14 1   
    29    13    42 1   
    30    13    43 1   
    31    14    15 1   
    32    14    44 1   
    33    15    16 1   
    34    15    45 1   
    35    15    46 1   
    36    16    17 1   
    37    16    18 1   
    38    16    20 1   
    39    19    27 1   
    40    19    47 1   
    41    19    48 1   
    42    20    21 ar  
    43    20    26 ar  
    44    21    22 ar  
    45    21    49 1   
    46    22    23 1   
    47    22    24 ar  
    48    24    25 ar  
    49    24    50 1   
    50    25    26 ar  
    51    25    51 1   
    52    26    52 1   
    53    27    28 1   
    54    27    53 1   
    55    28    29 1   
    56    28    54 1   
    57    29    55 1   
    58    29    56 1   
@<TRIPOS>SUBSTRUCTURE
     1 8AX         1 TEMP              0 ****  ****    0 ROOT
