@<TRIPOS>MOLECULE
8AY
   33    34     1     0     0
SMALL
abcg2


@<TRIPOS>ATOM
      1 C1          -4.8770     0.3610    -0.5900 c3         1 8AY      -0.011400
      2 C2          -5.7860     0.6250     0.6100 c3         1 8AY      -0.082100
      3 C3          -3.4870    -0.0360    -0.1480 ca         1 8AY      -0.092300
      4 C4          -2.3990     0.7690    -0.4500 ca         1 8AY      -0.067000
      5 N            3.0200    -1.0040    -1.3670 n8         1 8AY      -0.999200
      6 C5          -1.1330     0.3810    -0.0250 ca         1 8AY      -0.197000
      7 C6          -0.9270    -0.8030     0.6960 ca         1 8AY       0.111400
      8 C7           1.1700    -0.1310     0.6260 cc         1 8AY       0.479200
      9 CB           2.6410    -0.0920     0.8510 c3         1 8AY      -0.095700
     10 CA           3.4350     0.0430    -0.4500 c3         1 8AY       0.011500
     11 C            4.9550     0.1290    -0.1490 c          1 8AY       0.697000
     12 S            0.3880     1.1750    -0.2490 ss         1 8AY       0.010800
     13 N1           0.3820    -1.0560     1.0430 nd         1 8AY      -0.574100
     14 C29         -2.0230    -1.6100     0.9990 ca         1 8AY      -0.069000
     15 C30         -3.2790    -1.2210     0.5780 ca         1 8AY      -0.118000
     16 C8          -5.4910    -0.6850    -1.5190 c3         1 8AY      -0.082100
     17 O            5.7090    -0.6040    -0.8150 o          1 8AY      -0.727000
     18 H1          -4.7860     1.2950    -1.1530 hc         1 8AY       0.044700
     19 H3          -5.9420    -0.2830     1.1960 hc         1 8AY       0.030867
     20 H4          -5.3620     1.3820     1.2710 hc         1 8AY       0.030867
     21 H5          -6.7650     0.9770     0.2810 hc         1 8AY       0.030867
     22 H8          -2.5380     1.6860    -1.0100 ha         1 8AY       0.112000
     23 HB1          2.8860     0.7380     1.5160 hc         1 8AY       0.075700
     24 HB2          2.9170    -1.0140     1.3680 hc         1 8AY       0.075700
     25 HA           3.1630     1.0040    -0.9090 h1         1 8AY       0.042700
     26 H33         -1.8820    -2.5260     1.5580 ha         1 8AY       0.122000
     27 H34         -4.1250    -1.8540     0.8210 ha         1 8AY       0.101000
     28 H35         -6.4660    -0.3530    -1.8790 hc         1 8AY       0.030867
     29 H36         -4.8590    -0.8690    -2.3890 hc         1 8AY       0.030867
     30 H37         -5.6370    -1.6360    -1.0040 hc         1 8AY       0.030867
     31 OXT          5.2920     0.9540     0.7250 o          1 8AY      -0.727000
     32 H            3.5930    -0.9470    -2.2000 hn         1 8AY       0.387500
     33 H2           3.2570    -1.9030    -0.9600 hn         1 8AY       0.387500
@<TRIPOS>BOND
     1     1     2 1   
     2     1     3 1   
     3     1    16 1   
     4     1    18 1   
     5     2    19 1   
     6     2    20 1   
     7     2    21 1   
     8     3     4 ar  
     9     3    15 ar  
    10     4     6 ar  
    11     4    22 1   
    12     5    10 1   
    13     5    32 1   
    14     5    33 1   
    15     6     7 ar  
    16     6    12 1   
    17     7    13 1   
    18     7    14 ar  
    19     8     9 1   
    20     8    12 1   
    21     8    13 2   
    22     9    10 1   
    23     9    23 1   
    24     9    24 1   
    25    10    11 1   
    26    10    25 1   
    27    11    17 1   
    28    11    31 1   
    29    14    15 ar  
    30    14    26 1   
    31    15    27 1   
    32    16    28 1   
    33    16    29 1   
    34    16    30 1   
@<TRIPOS>SUBSTRUCTURE
     1 8AY         1 TEMP              0 ****  ****    0 ROOT
