@<TRIPOS>MOLECULE
8AY
   33    34     1     0     0
SMALL
No Charge or Current Charge


@<TRIPOS>ATOM
      1 C1          -4.9390     0.3910    -0.5440 c3         1 8AY      -0.011400
      2 C2          -5.8540     0.6350     0.6760 c3         1 8AY      -0.082100
      3 C3          -3.5400    -0.0570    -0.1150 ca         1 8AY      -0.092300
      4 C4          -2.4180     0.7450    -0.4160 ca         1 8AY      -0.067000
      5 N            3.2510    -1.0750    -1.4510 n8         1 8AY      -0.999200
      6 C5          -1.1450     0.3140    -0.0130 ca         1 8AY      -0.197000
      7 C6          -0.9540    -0.8690     0.6690 ca         1 8AY       0.111400
      8 C7           1.1400    -0.1950     0.5490 cc         1 8AY       0.479200
      9 CB           2.6250    -0.1710     0.8030 c3         1 8AY      -0.095700
     10 CA           3.5020     0.0310    -0.4590 c3         1 8AY       0.011500
     11 C            5.0140     0.2660    -0.0460 c          1 8AY       0.697000
     12 S            0.3610     1.1710    -0.2900 ss         1 8AY       0.010800
     13 N1           0.3540    -1.1820     1.0160 nd         1 8AY      -0.574100
     14 C29         -2.0580    -1.6780     0.9800 ca         1 8AY      -0.069000
     15 C30         -3.3490    -1.2720     0.5870 ca         1 8AY      -0.118000
     16 C8          -5.5710    -0.6040    -1.5420 c3         1 8AY      -0.082100
     17 O            5.6840    -0.7030     0.2850 o          1 8AY      -0.727000
     18 H1          -4.8560     1.3510    -1.0690 hc         1 8AY       0.044700
     19 H3          -6.0320    -0.2940     1.2310 hc         1 8AY       0.030867
     20 H4          -5.3970     1.3610     1.3590 hc         1 8AY       0.030867
     21 H5          -6.8250     1.0330     0.3580 hc         1 8AY       0.030867
     22 H8          -2.5320     1.6850    -0.9530 ha         1 8AY       0.112000
     23 HB1          2.8360     0.6410     1.5080 hc         1 8AY       0.075700
     24 HB2          2.9290    -1.0960     1.3080 hc         1 8AY       0.075700
     25 HA           3.1750     0.9630    -0.9410 h1         1 8AY       0.042700
     26 H33         -1.9170    -2.6110     1.5190 ha         1 8AY       0.122000
     27 H34         -4.2000    -1.9030     0.8300 ha         1 8AY       0.101000
     28 H35         -6.5370    -0.2290    -1.9020 hc         1 8AY       0.030867
     29 H36         -4.9160    -0.7440    -2.4100 hc         1 8AY       0.030867
     30 H37         -5.7370    -1.5820    -1.0750 hc         1 8AY       0.030867
     31 OXT          5.4780     1.3910    -0.1710 o          1 8AY      -0.727000
     32 H            3.7840    -0.8850    -2.3090 hn         1 8AY       0.387500
     33 H2           3.6900    -1.9350    -1.0970 hn         1 8AY       0.387500
@<TRIPOS>BOND
     1     1     2 1   
     2     1     3 1   
     3     1    16 1   
     4     1    18 1   
     5     2    19 1   
     6     2    20 1   
     7     2    21 1   
     8     3     4 ar  
     9     3    15 ar  
    10     4     6 ar  
    11     4    22 1   
    12     5    10 1   
    13     5    32 1   
    14     5    33 1   
    15     6     7 ar  
    16     6    12 1   
    17     7    13 1   
    18     7    14 ar  
    19     8     9 1   
    20     8    12 1   
    21     8    13 2   
    22     9    10 1   
    23     9    23 1   
    24     9    24 1   
    25    10    11 1   
    26    10    25 1   
    27    11    17 1   
    28    11    31 1   
    29    14    15 ar  
    30    14    26 1   
    31    15    27 1   
    32    16    28 1   
    33    16    29 1   
    34    16    30 1   
@<TRIPOS>SUBSTRUCTURE
     1 8AY         1 TEMP              0 ****  ****    0 ROOT
