@<TRIPOS>MOLECULE
8B0
   54    57     1     0     0
SMALL
No Charge or Current Charge


@<TRIPOS>ATOM
      1 C2           2.9300     1.8300    -1.4010 c2         1 8B0       0.404100
      2 C3           2.1400     0.7400    -1.5620 ce         1 8B0      -0.256900
      3 C4           1.9650    -0.3210    -0.4380 c6         1 8B0       0.199800
      4 C5           2.5840     0.2570     0.8080 cc         1 8B0      -0.242300
      5 C6           3.3660     1.4200     0.8570 cc         1 8B0       0.472300
      6 C10          2.6030    -0.1200     2.1860 cd         1 8B0      -0.087300
      7 C12          1.9370    -1.2990     2.8970 c3         1 8B0      -0.037800
      8 C13          2.7940    -1.6270    -0.8110 c3         1 8B0      -0.043700
      9 C14          2.2900    -2.4250    -2.0470 c3         1 8B0      -0.089100
     10 C15          0.4590    -0.5600    -0.1180 ca         1 8B0      -0.067300
     11 C16         -0.0800    -1.8350     0.1770 ca         1 8B0      -0.057000
     12 C17         -1.4440    -1.9990     0.4960 ca         1 8B0      -0.201300
     13 C19         -1.7710     0.4260     0.2770 cp         1 8B0      -0.056000
     14 N53         -4.6470    -0.0540    -2.0720 n1         1 8B0      -0.439000
     15 C39         -3.8430     1.7760    -0.3990 ca         1 8B0      -0.001000
     16 C40         -4.6240     2.9450    -0.2790 ca         1 8B0      -0.073000
     17 C41         -4.2270     3.9830     0.5800 ca         1 8B0      -0.110000
     18 C42         -3.0430     3.8640     1.3220 ca         1 8B0      -0.090000
     19 C43         -2.2590     2.7050     1.2080 ca         1 8B0      -0.106000
     20 C32         -2.6430     1.6390     0.3580 cp         1 8B0       0.002000
     21 C18         -2.2780    -0.8640     0.5480 ca         1 8B0      -0.041000
     22 C33         -1.9890    -3.3950     0.8190 c3         1 8B0       0.357300
     23 F48         -1.4700    -4.3420     0.0040 f          1 8B0      -0.113333
     24 F47         -1.6900    -3.7560     2.0860 f          1 8B0      -0.113333
     25 F46         -3.3340    -3.4740     0.6930 f          1 8B0      -0.113333
     26 C20         -0.4000     0.5580    -0.0370 ca         1 8B0      -0.050000
     27 C34          4.3210    -1.3860    -0.9660 c3         1 8B0      -0.089100
     28 C8           1.4170     0.5530    -2.7840 cg         1 8B0       0.308700
     29 N9           0.8200     0.4510    -3.7800 n1         1 8B0      -0.498000
     30 N7           3.1560     2.8130    -2.3330 nv         1 8B0      -0.965000
     31 N51          3.4140     0.8480     2.9300 na         1 8B0      -0.005200
     32 N11          3.8850     1.8160     2.0210 nd         1 8B0      -0.510800
     33 O1           3.6000     2.1470    -0.2640 os         1 8B0      -0.334400
     34 H1           2.1650    -2.2470     2.3960 hc         1 8B0       0.059700
     35 H2           2.2740    -1.3870     3.9370 hc         1 8B0       0.059700
     36 H3           0.8460    -1.1820     2.9130 hc         1 8B0       0.059700
     37 H4           2.7110    -2.3100     0.0420 hc         1 8B0       0.039700
     38 H5           2.6140    -1.9530    -2.9820 hc         1 8B0       0.038533
     39 H6           2.7020    -3.4420    -2.0360 hc         1 8B0       0.038533
     40 H7           1.1990    -2.5090    -2.0730 hc         1 8B0       0.038533
     41 H8           0.5550    -2.7160     0.1800 ha         1 8B0       0.131000
     42 H9          -5.5390     3.0530    -0.8570 ha         1 8B0       0.128000
     43 H10         -4.8350     4.8810     0.6650 ha         1 8B0       0.122000
     44 H11         -2.7320     4.6690     1.9850 ha         1 8B0       0.119000
     45 H12         -1.3460     2.6230     1.7930 ha         1 8B0       0.122000
     46 H13         -3.3260    -0.9700     0.8220 ha         1 8B0       0.138000
     47 H14         -0.0050     1.5540    -0.2200 ha         1 8B0       0.128000
     48 H15          4.5320    -0.6880    -1.7850 hc         1 8B0       0.038533
     49 H16          4.7620    -0.9830    -0.0470 hc         1 8B0       0.038533
     50 H17          4.8390    -2.3280    -1.1860 hc         1 8B0       0.038533
     51 H18          2.4450     2.9220    -3.0510 hn         1 8B0       0.507500
     52 H19          3.5320     3.6840    -1.9670 hn         1 8B0       0.507500
     53 H20          3.6290     0.8600     3.9270 hn         1 8B0       0.380000
     54 C50         -4.2800     0.7630    -1.3220 cg         1 8B0       0.316000
@<TRIPOS>BOND
     1     1     2 2   
     2     1    30 1   
     3     1    33 1   
     4     2     3 1   
     5     2    28 1   
     6     3     4 1   
     7     3     8 1   
     8     3    10 1   
     9     4     5 1   
    10     4     6 2   
    11     5    32 2   
    12     5    33 1   
    13     6     7 1   
    14     6    31 1   
    15     7    34 1   
    16     7    35 1   
    17     7    36 1   
    18     8     9 1   
    19     8    27 1   
    20     8    37 1   
    21     9    38 1   
    22     9    39 1   
    23     9    40 1   
    24    10    11 ar  
    25    10    26 ar  
    26    11    12 ar  
    27    11    41 1   
    28    12    21 ar  
    29    12    22 1   
    30    13    20 1   
    31    13    21 ar  
    32    13    26 ar  
    33    14    54 3   
    34    15    16 ar  
    35    15    20 ar  
    36    15    54 1   
    37    16    17 ar  
    38    16    42 1   
    39    17    18 ar  
    40    17    43 1   
    41    18    19 ar  
    42    18    44 1   
    43    19    20 ar  
    44    19    45 1   
    45    21    46 1   
    46    22    23 1   
    47    22    24 1   
    48    22    25 1   
    49    26    47 1   
    50    27    48 1   
    51    27    49 1   
    52    27    50 1   
    53    28    29 3   
    54    30    51 1   
    55    30    52 1   
    56    31    32 1   
    57    31    53 1   
@<TRIPOS>SUBSTRUCTURE
     1 8B0         1 TEMP              0 ****  ****    0 ROOT
