@<TRIPOS>MOLECULE
8B0
   54    57     1     0     0
SMALL
bcc


@<TRIPOS>ATOM
      1 C2           2.9680     1.8180    -1.3860 c2         1 8B0       0.404100
      2 C3           2.1130     0.7470    -1.4720 ce         1 8B0      -0.256900
      3 C4           1.9520    -0.3260    -0.3970 c6         1 8B0       0.199800
      4 C5           2.5450     0.2660     0.8460 cc         1 8B0      -0.307600
      5 C6           3.3430     1.4030     0.8330 cc         1 8B0       0.537600
      6 C10          2.5260    -0.0930     2.1820 cd         1 8B0      -0.036600
      7 C12          1.8520    -1.2040     2.9010 c3         1 8B0      -0.037800
      8 C13          2.7200    -1.6250    -0.7850 c3         1 8B0      -0.043700
      9 C14          2.2500    -2.2410    -2.1030 c3         1 8B0      -0.089100
     10 C15          0.4640    -0.5660    -0.1210 ca         1 8B0      -0.067300
     11 C16         -0.0660    -1.8220     0.1330 ca         1 8B0      -0.075000
     12 C17         -1.4110    -1.9720     0.4560 ca         1 8B0      -0.201300
     13 C19         -1.7320     0.3950     0.2780 cp         1 8B0      -0.056000
     14 N53         -4.6140    -0.1440    -1.9180 n1         1 8B0      -0.349800
     15 C39         -3.8020     1.7070    -0.3140 ca         1 8B0      -0.001000
     16 C40         -4.5940     2.8500    -0.2010 ca         1 8B0      -0.091000
     17 C41         -4.1770     3.9000     0.5980 ca         1 8B0      -0.128000
     18 C42         -2.9700     3.8080     1.2770 ca         1 8B0      -0.108000
     19 C43         -2.1860     2.6700     1.1660 ca         1 8B0      -0.124000
     20 C32         -2.5860     1.5960     0.3760 cp         1 8B0       0.002000
     21 C18         -2.2490    -0.8740     0.5310 ca         1 8B0      -0.059000
     22 C33         -1.9140    -3.3440     0.7780 c3         1 8B0       0.721200
     23 F48         -1.5120    -4.2470    -0.1260 f          1 8B0      -0.234633
     24 F47         -1.4560    -3.7660     1.9670 f          1 8B0      -0.234633
     25 F46         -3.2470    -3.4070     0.8310 f          1 8B0      -0.234633
     26 C20         -0.3890     0.5330    -0.0390 ca         1 8B0      -0.068000
     27 C34          4.2270    -1.4050    -0.8440 c3         1 8B0      -0.089100
     28 C8           1.3450     0.6570    -2.6460 cg         1 8B0       0.219500
     29 N9           0.7000     0.6140    -3.6080 n1         1 8B0      -0.408800
     30 N7           3.2520     2.6730    -2.3740 nv         1 8B0      -0.854600
     31 N51          3.2850     0.8210     2.8110 na         1 8B0      -0.005600
     32 N11          3.7990     1.7560     2.0060 nd         1 8B0      -0.510800
     33 O1           3.6560     2.1190    -0.2730 os         1 8B0      -0.334400
     34 H1           2.1420    -2.1730     2.4950 hc         1 8B0       0.059700
     35 H2           2.1030    -1.1990     3.9610 hc         1 8B0       0.059700
     36 H3           0.7680    -1.1250     2.8130 hc         1 8B0       0.059700
     37 H4           2.5420    -2.3500     0.0180 hc         1 8B0       0.039700
     38 H5           2.6260    -1.6780    -2.9580 hc         1 8B0       0.038533
     39 H6           2.6360    -3.2570    -2.1940 hc         1 8B0       0.038533
     40 H7           1.1660    -2.2960    -2.1960 hc         1 8B0       0.038533
     41 H8           0.5670    -2.6980     0.0970 ha         1 8B0       0.149000
     42 H9          -5.5250     2.9140    -0.7470 ha         1 8B0       0.146000
     43 H10         -4.7900     4.7860     0.6850 ha         1 8B0       0.140000
     44 H11         -2.6370     4.6250     1.9040 ha         1 8B0       0.137000
     45 H12         -1.2570     2.6040     1.7170 ha         1 8B0       0.140000
     46 H13         -3.2890    -0.9880     0.8050 ha         1 8B0       0.156000
     47 H14          0.0040     1.5230    -0.2370 ha         1 8B0       0.146000
     48 H15          4.4910    -0.6460    -1.5840 hc         1 8B0       0.038533
     49 H16          4.6450    -1.1070     0.1170 hc         1 8B0       0.038533
     50 H17          4.7230    -2.3310    -1.1400 hc         1 8B0       0.038533
     51 H18          2.7730     2.6040    -3.2570 hn         1 8B0       0.452300
     52 H19          3.6560     3.5700    -2.1570 hn         1 8B0       0.452300
     53 H20          3.4830     0.8610     3.7980 hn         1 8B0       0.329700
     54 C50         -4.2400     0.6700    -1.1930 cg         1 8B0       0.226800
@<TRIPOS>BOND
     1     1     2 2   
     2     1    30 1   
     3     1    33 1   
     4     2     3 1   
     5     2    28 1   
     6     3     4 1   
     7     3     8 1   
     8     3    10 1   
     9     4     5 1   
    10     4     6 2   
    11     5    32 2   
    12     5    33 1   
    13     6     7 1   
    14     6    31 1   
    15     7    34 1   
    16     7    35 1   
    17     7    36 1   
    18     8     9 1   
    19     8    27 1   
    20     8    37 1   
    21     9    38 1   
    22     9    39 1   
    23     9    40 1   
    24    10    11 ar  
    25    10    26 ar  
    26    11    12 ar  
    27    11    41 1   
    28    12    21 ar  
    29    12    22 1   
    30    13    20 1   
    31    13    21 ar  
    32    13    26 ar  
    33    14    54 3   
    34    15    16 ar  
    35    15    20 ar  
    36    15    54 1   
    37    16    17 ar  
    38    16    42 1   
    39    17    18 ar  
    40    17    43 1   
    41    18    19 ar  
    42    18    44 1   
    43    19    20 ar  
    44    19    45 1   
    45    21    46 1   
    46    22    23 1   
    47    22    24 1   
    48    22    25 1   
    49    26    47 1   
    50    27    48 1   
    51    27    49 1   
    52    27    50 1   
    53    28    29 3   
    54    30    51 1   
    55    30    52 1   
    56    31    32 1   
    57    31    53 1   
@<TRIPOS>SUBSTRUCTURE
     1 8B0         1 TEMP              0 ****  ****    0 ROOT
