@<TRIPOS>MOLECULE
8B1
   88    91     1     0     0
SMALL
No Charge or Current Charge


@<TRIPOS>ATOM
      1 O1           4.7480     0.2500    -1.0330 o          1 8B1      -0.641100
      2 N3           2.1330     2.8580     1.5550 n3         1 8B1      -0.717600
      3 C13          4.0630    -0.0710    -0.0710 c          1 8B1       0.611100
      4 C14          3.6920     0.9200     1.0290 c3         1 8B1      -0.151400
      5 C15          2.5800     1.8680     0.5420 c3         1 8B1       0.177800
      6 C16          0.8510     3.5250     1.1650 c6         1 8B1       0.124800
      7 C17          0.3730     4.5460     2.2390 c6         1 8B1       0.153100
      8 C18          2.6390     4.8980     2.9700 c6         1 8B1       0.153100
      9 C19          3.1690     3.8820     1.9140 c6         1 8B1       0.124800
     10 O            1.4140     5.5150     2.5080 os         1 8B1      -0.452000
     11 N1           1.5170    -3.0640    -0.8000 ns         1 8B1      -0.491900
     12 N2           3.6210    -1.3620     0.1100 ns         1 8B1      -0.496900
     13 C11          2.8720    -3.6290    -0.7230 c3         1 8B1       0.089700
     14 C12          3.9080    -2.4760    -0.8100 c3         1 8B1       0.083000
     15 C20          3.0700    -4.7720    -1.7770 c6         1 8B1      -0.069700
     16 C25          1.9700    -5.8730    -1.6580 c6         1 8B1      -0.070400
     17 C24          2.1650    -7.0040    -2.6970 c6         1 8B1      -0.073400
     18 C23          3.5710    -7.6370    -2.5800 c6         1 8B1      -0.074400
     19 C22          4.6710    -6.5590    -2.7190 c6         1 8B1      -0.073400
     20 C21          4.4840    -5.4260    -1.6800 c6         1 8B1      -0.070400
     21 C2          -6.8720     4.5620    -2.0230 c3         1 8B1      -0.085100
     22 C3          -5.3160     2.9240    -0.8590 ca         1 8B1      -0.059300
     23 C4          -5.0890     1.5550    -1.1220 ca         1 8B1      -0.073000
     24 N4          -1.1980    -1.7230     1.3240 ns         1 8B1      -0.495900
     25 C5          -3.7790     1.0580    -1.0600 ca         1 8B1      -0.173000
     26 C6          -2.7050     1.8650    -0.7480 ca         1 8B1       0.086400
     27 C7          -1.6470    -0.0460    -0.9930 cc         1 8B1       0.411200
     28 C8          -0.5060    -1.0270    -0.9900 c3         1 8B1      -0.130700
     29 C9          -0.6860    -2.2020     0.0190 c3         1 8B1       0.043700
     30 S           -3.2990    -0.6040    -1.3520 ss         1 8B1      -0.008200
     31 N           -1.4610     1.2500    -0.7110 nd         1 8B1      -0.528100
     32 C29         -2.9090     3.2270    -0.4850 ca         1 8B1      -0.057000
     33 C30         -4.2150     3.7550    -0.5400 ca         1 8B1      -0.106000
     34 C           -7.1890     4.0270     0.4580 c3         1 8B1      -0.085100
     35 O2           0.7630    -3.7790     1.2230 o          1 8B1      -0.602100
     36 C28         -1.6280     1.0520     3.3080 c3         1 8B1      -0.089100
     37 H16          3.3270     0.3870     1.9140 hc         1 8B1       0.067200
     38 H17          4.5830     1.5040     1.2780 hc         1 8B1       0.067200
     39 H18          1.7250     1.2470     0.2420 h1         1 8B1       0.054200
     40 H19          2.9240     2.3880    -0.3640 h1         1 8B1       0.054200
     41 H20          0.9690     4.0510     0.2060 h1         1 8B1       0.042700
     42 H21          0.0610     2.7730     1.0260 h1         1 8B1       0.042700
     43 H22         -0.5250     5.0710     1.8830 h1         1 8B1       0.047200
     44 H23          0.1170     4.0220     3.1700 h1         1 8B1       0.047200
     45 H24          2.4500     4.3840     3.9230 h1         1 8B1       0.047200
     46 H25          3.3910     5.6800     3.1470 h1         1 8B1       0.047200
     47 H26          4.0680     3.4010     2.3260 h1         1 8B1       0.042700
     48 H27          3.4830     4.4380     1.0180 h1         1 8B1       0.042700
     49 H2           1.2890    -2.5000    -1.6080 hn         1 8B1       0.328500
     50 H6           3.0430    -1.5360     0.9250 hn         1 8B1       0.322500
     51 H13          3.0000    -4.0900     0.2660 h1         1 8B1       0.080700
     52 H14          3.9220    -2.0910    -1.8390 h1         1 8B1       0.060200
     53 H15          4.9100    -2.8580    -0.5790 h1         1 8B1       0.060200
     54 H38          2.9770    -4.3000    -2.7660 hc         1 8B1       0.048700
     55 H39          1.9810    -6.3000    -0.6450 hc         1 8B1       0.042700
     56 H40          0.9710    -5.4390    -1.8000 hc         1 8B1       0.042700
     57 H41          1.3970    -7.7770    -2.5550 hc         1 8B1       0.038200
     58 H42          2.0220    -6.6040    -3.7100 hc         1 8B1       0.038200
     59 H43          3.6700    -8.1470    -1.6120 hc         1 8B1       0.039200
     60 H44          3.7010    -8.4050    -3.3540 hc         1 8B1       0.039200
     61 H45          5.6600    -7.0200    -2.5930 hc         1 8B1       0.038200
     62 H46          4.6510    -6.1380    -3.7340 hc         1 8B1       0.038200
     63 H47          5.2680    -4.6750    -1.8450 hc         1 8B1       0.042700
     64 H48          4.6410    -5.8250    -0.6690 hc         1 8B1       0.042700
     65 H1          -7.4280     2.6800    -1.1810 hc         1 8B1       0.049700
     66 H3          -6.2470     5.4370    -1.8060 hc         1 8B1       0.036867
     67 H4          -6.5670     4.1530    -2.9930 hc         1 8B1       0.036867
     68 H5          -7.9120     4.8980    -2.1080 hc         1 8B1       0.036867
     69 H8          -5.9140     0.8910    -1.3700 ha         1 8B1       0.124000
     70 H9          -2.1510    -1.9460     1.5880 hn         1 8B1       0.326500
     71 H10         -0.3900    -1.4250    -2.0050 hc         1 8B1       0.090200
     72 H11          0.4200    -0.4890    -0.7560 hc         1 8B1       0.090200
     73 H12         -1.4480    -2.8730    -0.3990 h1         1 8B1       0.070700
     74 H33         -2.0670     3.8690    -0.2400 ha         1 8B1       0.130000
     75 H34         -4.3680     4.8120    -0.3340 ha         1 8B1       0.119000
     76 H35         -6.5760     4.8800     0.7720 hc         1 8B1       0.036867
     77 H36         -8.2350     4.3540     0.4190 hc         1 8B1       0.036867
     78 H37         -7.1050     3.2440     1.2210 hc         1 8B1       0.036867
     79 H28         -2.1960    -1.0160     3.5280 hc         1 8B1       0.058200
     80 H29         -0.6420    -0.5810     4.3120 hc         1 8B1       0.058200
     81 H31         -2.2420     1.2370     2.4170 hc         1 8B1       0.045700
     82 H32         -2.1910     1.3810     4.1890 hc         1 8B1       0.045700
     83 H30         -0.7200     1.6640     3.2330 hc         1 8B1       0.045700
     84 C10          0.5850    -3.0980     0.2200 c          1 8B1       0.609100
     85 C26         -0.4870    -0.9230     2.1940 c          1 8B1       0.612100
     86 C1          -6.7360     3.4900    -0.9180 c3         1 8B1      -0.019400
     87 C27         -1.2660    -0.4450     3.4220 c3         1 8B1      -0.151400
     88 O3           0.6860    -0.6390     2.0080 o          1 8B1      -0.614100
@<TRIPOS>BOND
     1     1     3 2   
     2     2     5 1   
     3     2     6 1   
     4     2     9 1   
     5     3     4 1   
     6     3    12 1   
     7     4     5 1   
     8     4    37 1   
     9     4    38 1   
    10     5    39 1   
    11     5    40 1   
    12     6     7 1   
    13     6    41 1   
    14     6    42 1   
    15     7    10 1   
    16     7    43 1   
    17     7    44 1   
    18     8     9 1   
    19     8    10 1   
    20     8    45 1   
    21     8    46 1   
    22     9    47 1   
    23     9    48 1   
    24    11    13 1   
    25    11    49 1   
    26    11    84 1   
    27    12    14 1   
    28    12    50 1   
    29    13    14 1   
    30    13    15 1   
    31    13    51 1   
    32    14    52 1   
    33    14    53 1   
    34    15    16 1   
    35    15    20 1   
    36    15    54 1   
    37    16    17 1   
    38    16    55 1   
    39    16    56 1   
    40    17    18 1   
    41    17    57 1   
    42    17    58 1   
    43    18    19 1   
    44    18    59 1   
    45    18    60 1   
    46    19    20 1   
    47    19    61 1   
    48    19    62 1   
    49    20    63 1   
    50    20    64 1   
    51    21    66 1   
    52    21    67 1   
    53    21    68 1   
    54    21    86 1   
    55    22    23 ar  
    56    22    33 ar  
    57    22    86 1   
    58    23    25 ar  
    59    23    69 1   
    60    24    29 1   
    61    24    70 1   
    62    24    85 1   
    63    25    26 ar  
    64    25    30 1   
    65    26    31 1   
    66    26    32 ar  
    67    27    28 1   
    68    27    30 1   
    69    27    31 2   
    70    28    29 1   
    71    28    71 1   
    72    28    72 1   
    73    29    73 1   
    74    29    84 1   
    75    32    33 ar  
    76    32    74 1   
    77    33    75 1   
    78    34    76 1   
    79    34    77 1   
    80    34    78 1   
    81    34    86 1   
    82    35    84 2   
    83    36    81 1   
    84    36    82 1   
    85    36    83 1   
    86    36    87 1   
    87    65    86 1   
    88    79    87 1   
    89    80    87 1   
    90    85    87 1   
    91    85    88 2   
@<TRIPOS>SUBSTRUCTURE
     1 8B1         1 TEMP              0 ****  ****    0 ROOT
