@<TRIPOS>MOLECULE
8B1
   88    91     1     0     0
SMALL
abcg2


@<TRIPOS>ATOM
      1 O1           3.0150    -0.0380    -1.3500 o          1 8B1      -0.641100
      2 N3           2.0140     2.8920     1.5750 n3         1 8B1      -0.717600
      3 C13          3.3280    -0.2220    -0.1770 c          1 8B1       0.611100
      4 C14          3.2480     0.8780     0.8570 c3         1 8B1      -0.151400
      5 C15          2.1680     1.9000     0.5290 c3         1 8B1       0.177800
      6 C16          0.7880     3.6480     1.4050 c6         1 8B1       0.124800
      7 C17          0.6130     4.6170     2.5580 c6         1 8B1       0.153100
      8 C18          2.9160     4.7850     2.8060 c6         1 8B1       0.153100
      9 C19          3.1350     3.8100     1.6640 c6         1 8B1       0.124800
     10 O            1.7090     5.5000     2.6610 os         1 8B1      -0.452000
     11 N1           1.6300    -2.8840    -0.7200 ns         1 8B1      -0.491900
     12 N2           3.8130    -1.3950     0.2640 ns         1 8B1      -0.496900
     13 C11          2.9000    -3.5670    -0.5700 c3         1 8B1       0.089700
     14 C12          4.0400    -2.5360    -0.5880 c3         1 8B1       0.083000
     15 C20          3.0900    -4.6470    -1.6490 c6         1 8B1      -0.069700
     16 C25          1.9380    -5.6530    -1.6380 c6         1 8B1      -0.070400
     17 C24          2.1140    -6.7400    -2.6930 c6         1 8B1      -0.073400
     18 C23          3.4410    -7.4680    -2.5240 c6         1 8B1      -0.074400
     19 C22          4.5990    -6.4790    -2.5360 c6         1 8B1      -0.073400
     20 C21          4.4230    -5.3830    -1.4880 c6         1 8B1      -0.070400
     21 C2          -6.7450     4.5060    -2.0980 c3         1 8B1      -0.085100
     22 C3          -5.3240     2.8210    -0.9040 ca         1 8B1      -0.059300
     23 C4          -5.0600     1.5220    -1.3120 ca         1 8B1      -0.073000
     24 N4          -1.2010    -1.7440     1.1290 ns         1 8B1      -0.495900
     25 C5          -3.7670     1.0260    -1.1850 ca         1 8B1      -0.173000
     26 C6          -2.7270     1.8010    -0.6540 ca         1 8B1       0.086400
     27 C7          -1.5670    -0.0250    -1.0490 cc         1 8B1       0.411200
     28 C8          -0.4180    -0.9690    -1.0790 c3         1 8B1      -0.130700
     29 C9          -0.6390    -2.1610    -0.1280 c3         1 8B1       0.043700
     30 S           -3.1460    -0.5310    -1.6140 ss         1 8B1      -0.008200
     31 N           -1.5040     1.1730    -0.5910 nd         1 8B1      -0.528100
     32 C29         -2.9960     3.1070    -0.2460 ca         1 8B1      -0.057000
     33 C30         -4.2790     3.5990    -0.3740 ca         1 8B1      -0.106000
     34 C           -7.2720     3.8840     0.2870 c3         1 8B1      -0.085100
     35 O2           0.5810    -3.8540     1.0300 o          1 8B1      -0.602100
     36 C28         -1.1390     0.9580     3.3440 c3         1 8B1      -0.089100
     37 H16          3.0640     0.4600     1.8470 hc         1 8B1       0.067200
     38 H17          4.2360     1.3500     0.8940 hc         1 8B1       0.067200
     39 H18          1.2120     1.3840     0.4320 h1         1 8B1       0.054200
     40 H19          2.3810     2.3680    -0.4450 h1         1 8B1       0.054200
     41 H20          0.7770     4.2070     0.4520 h1         1 8B1       0.042700
     42 H21         -0.0580     2.9580     1.3810 h1         1 8B1       0.042700
     43 H22         -0.2830     5.2240     2.4130 h1         1 8B1       0.047200
     44 H23          0.4890     4.0490     3.4910 h1         1 8B1       0.047200
     45 H24          2.9220     4.2310     3.7560 h1         1 8B1       0.047200
     46 H25          3.7260     5.5150     2.8370 h1         1 8B1       0.047200
     47 H26          4.0590     3.2620     1.8550 h1         1 8B1       0.042700
     48 H27          3.2780     4.3650     0.7200 h1         1 8B1       0.042700
     49 H2           1.5940    -2.1590    -1.4180 hn         1 8B1       0.328500
     50 H6           3.9890    -1.5010     1.2490 hn         1 8B1       0.322500
     51 H13          2.8850    -4.0520     0.4090 h1         1 8B1       0.080700
     52 H14          4.2060    -2.1830    -1.6080 h1         1 8B1       0.060200
     53 H15          4.9620    -3.0170    -0.2650 h1         1 8B1       0.060200
     54 H38          3.0960    -4.1400    -2.6250 hc         1 8B1       0.048700
     55 H39          1.8830    -6.1170    -0.6470 hc         1 8B1       0.042700
     56 H40          0.9870    -5.1390    -1.7950 hc         1 8B1       0.042700
     57 H41          1.2800    -7.4450    -2.6400 hc         1 8B1       0.038200
     58 H42          2.0750    -6.2880    -3.6910 hc         1 8B1       0.038200
     59 H43          3.4380    -8.0200    -1.5780 hc         1 8B1       0.039200
     60 H44          3.5710    -8.2110    -3.3150 hc         1 8B1       0.039200
     61 H45          5.5480    -6.9950    -2.3760 hc         1 8B1       0.038200
     62 H46          4.6620    -6.0130    -3.5260 hc         1 8B1       0.038200
     63 H47          5.2640    -4.6900    -1.5590 hc         1 8B1       0.042700
     64 H48          4.4670    -5.8230    -0.4840 hc         1 8B1       0.042700
     65 H1          -7.3620     2.5850    -1.4030 hc         1 8B1       0.049700
     66 H3          -6.1440     5.3630    -1.7860 hc         1 8B1       0.036867
     67 H4          -6.3600     4.1580    -3.0570 hc         1 8B1       0.036867
     68 H5          -7.7650     4.8590    -2.2540 hc         1 8B1       0.036867
     69 H8          -5.8500     0.9080    -1.7250 ha         1 8B1       0.124000
     70 H9          -2.1700    -1.9380     1.3120 hn         1 8B1       0.326500
     71 H10         -0.2730    -1.3380    -2.0980 hc         1 8B1       0.090200
     72 H11          0.4670    -0.4030    -0.7970 hc         1 8B1       0.090200
     73 H12         -1.3720    -2.8300    -0.5870 h1         1 8B1       0.070700
     74 H33         -2.2040     3.7220     0.1610 ha         1 8B1       0.130000
     75 H34         -4.4790     4.6150    -0.0580 ha         1 8B1       0.119000
     76 H35         -6.6990     4.7290     0.6720 hc         1 8B1       0.036867
     77 H36         -8.3050     4.2150     0.1730 hc         1 8B1       0.036867
     78 H37         -7.2540     3.0950     1.0410 hc         1 8B1       0.036867
     79 H28         -2.2410    -0.9000     3.2590 hc         1 8B1       0.058200
     80 H29         -0.7210    -1.0070     4.1280 hc         1 8B1       0.058200
     81 H31         -1.6730     1.4210     2.5130 hc         1 8B1       0.045700
     82 H32         -1.5950     1.3040     4.2710 hc         1 8B1       0.045700
     83 H30         -0.1080     1.3100     3.3180 hc         1 8B1       0.045700
     84 C10          0.6030    -3.0320     0.1280 c          1 8B1       0.609100
     85 C26         -0.4710    -1.0580     2.0270 c          1 8B1       0.612100
     86 C1          -6.7150     3.3930    -1.0490 c3         1 8B1      -0.019400
     87 C27         -1.2020    -0.5650     3.2520 c3         1 8B1      -0.151400
     88 O3           0.7180    -0.8360     1.8470 o          1 8B1      -0.614100
@<TRIPOS>BOND
     1     1     3 2   
     2     2     5 1   
     3     2     6 1   
     4     2     9 1   
     5     3     4 1   
     6     3    12 1   
     7     4     5 1   
     8     4    37 1   
     9     4    38 1   
    10     5    39 1   
    11     5    40 1   
    12     6     7 1   
    13     6    41 1   
    14     6    42 1   
    15     7    10 1   
    16     7    43 1   
    17     7    44 1   
    18     8     9 1   
    19     8    10 1   
    20     8    45 1   
    21     8    46 1   
    22     9    47 1   
    23     9    48 1   
    24    11    13 1   
    25    11    49 1   
    26    11    84 1   
    27    12    14 1   
    28    12    50 1   
    29    13    14 1   
    30    13    15 1   
    31    13    51 1   
    32    14    52 1   
    33    14    53 1   
    34    15    16 1   
    35    15    20 1   
    36    15    54 1   
    37    16    17 1   
    38    16    55 1   
    39    16    56 1   
    40    17    18 1   
    41    17    57 1   
    42    17    58 1   
    43    18    19 1   
    44    18    59 1   
    45    18    60 1   
    46    19    20 1   
    47    19    61 1   
    48    19    62 1   
    49    20    63 1   
    50    20    64 1   
    51    21    66 1   
    52    21    67 1   
    53    21    68 1   
    54    21    86 1   
    55    22    23 ar  
    56    22    33 ar  
    57    22    86 1   
    58    23    25 ar  
    59    23    69 1   
    60    24    29 1   
    61    24    70 1   
    62    24    85 1   
    63    25    26 ar  
    64    25    30 1   
    65    26    31 1   
    66    26    32 ar  
    67    27    28 1   
    68    27    30 1   
    69    27    31 2   
    70    28    29 1   
    71    28    71 1   
    72    28    72 1   
    73    29    73 1   
    74    29    84 1   
    75    32    33 ar  
    76    32    74 1   
    77    33    75 1   
    78    34    76 1   
    79    34    77 1   
    80    34    78 1   
    81    34    86 1   
    82    35    84 2   
    83    36    81 1   
    84    36    82 1   
    85    36    83 1   
    86    36    87 1   
    87    65    86 1   
    88    79    87 1   
    89    80    87 1   
    90    85    87 1   
    91    85    88 2   
@<TRIPOS>SUBSTRUCTURE
     1 8B1         1 TEMP              0 ****  ****    0 ROOT
