@<TRIPOS>MOLECULE
8B2
   33    34     1     0     0
SMALL
No Charge or Current Charge


@<TRIPOS>ATOM
      1 C15         -0.1880     5.1690    -8.0230 c6         1 8B2       0.158800
      2 C01          2.9630     1.3320   -13.8160 c3         1 8B2      -0.087100
      3 C02          2.2290     2.6840   -13.7150 c3         1 8B2       0.218800
      4 N03          1.1230     2.7410   -14.6790 n8         1 8B2      -1.001200
      5 C04          1.7260     2.9740   -12.3020 ca         1 8B2      -0.120300
      6 C05          0.7990     2.1200   -11.6700 ca         1 8B2      -0.067500
      7 C06          0.3510     2.3940   -10.3660 ca         1 8B2      -0.164500
      8 C07          0.8150     3.5280    -9.6690 ca         1 8B2       0.292000
      9 C08          1.7400     4.3780   -10.3030 ca         1 8B2      -0.164500
     10 C09          2.1920     4.1070   -11.6070 ca         1 8B2      -0.067500
     11 N10          0.3740     3.8170    -8.3530 nh         1 8B2      -0.784400
     12 C11         -0.1000     2.7270    -7.4370 c6         1 8B2       0.158800
     13 C12         -0.0370     3.1440    -5.9370 c6         1 8B2       0.147600
     14 O13         -0.7090     4.4080    -5.7250 os         1 8B2      -0.445000
     15 C14         -0.1220     5.4820    -6.4970 c6         1 8B2       0.147600
     16 H1           0.3540     5.9620    -8.5590 h1         1 8B2       0.046700
     17 H2          -1.2370     5.2230    -8.3480 h1         1 8B2       0.046700
     18 H4           2.2910     0.4950   -13.5940 hc         1 8B2       0.039367
     19 H5           3.3730     1.1870   -14.8230 hc         1 8B2       0.039367
     20 H6           2.9410     3.4700   -14.0000 h1         1 8B2       0.015700
     21 H7           0.7180     3.6830   -14.6500 hn         1 8B2       0.395500
     22 H8           1.5090     2.6720   -15.6270 hn         1 8B2       0.395500
     23 H10          0.4210     1.2440   -12.1930 ha         1 8B2       0.116500
     24 H11         -0.3700     1.7250    -9.9080 ha         1 8B2       0.112500
     25 H12          2.1240     5.2480    -9.7800 ha         1 8B2       0.112500
     26 H13          2.9100     4.7780   -12.0730 ha         1 8B2       0.116500
     27 H14         -1.1370     2.4550    -7.6840 h1         1 8B2       0.046700
     28 H15          0.5160     1.8250    -7.5690 h1         1 8B2       0.046700
     29 H16         -0.5140     2.3730    -5.3160 h1         1 8B2       0.052450
     30 H17          1.0120     3.2350    -5.6190 h1         1 8B2       0.052450
     31 H18          0.9260     5.6170    -6.1890 h1         1 8B2       0.052450
     32 H19         -0.6610     6.4160    -6.2850 h1         1 8B2       0.052450
     33 H3           3.7970     1.3000   -13.1040 hc         1 8B2       0.039367
@<TRIPOS>BOND
     1     1    11 1   
     2     1    15 1   
     3     1    16 1   
     4     1    17 1   
     5     2     3 1   
     6     2    18 1   
     7     2    19 1   
     8     2    33 1   
     9     3     4 1   
    10     3     5 1   
    11     3    20 1   
    12     4    21 1   
    13     4    22 1   
    14     5     6 ar  
    15     5    10 ar  
    16     6     7 ar  
    17     6    23 1   
    18     7     8 ar  
    19     7    24 1   
    20     8     9 ar  
    21     8    11 1   
    22     9    10 ar  
    23     9    25 1   
    24    10    26 1   
    25    11    12 1   
    26    12    13 1   
    27    12    27 1   
    28    12    28 1   
    29    13    14 1   
    30    13    29 1   
    31    13    30 1   
    32    14    15 1   
    33    15    31 1   
    34    15    32 1   
@<TRIPOS>SUBSTRUCTURE
     1 8B2         1 TEMP              0 ****  ****    0 ROOT
