@<TRIPOS>MOLECULE
8B2
   33    34     1     0     0
SMALL
abcg2


@<TRIPOS>ATOM
      1 C15          0.1100     5.1610    -7.9660 c6         1 8B2       0.158800
      2 C01          3.1930     1.6710   -13.7210 c3         1 8B2      -0.087100
      3 C02          2.0920     2.7280   -13.7190 c3         1 8B2       0.218800
      4 N03          0.9750     2.2490   -14.5230 n8         1 8B2      -1.001200
      5 C04          1.6370     3.0200   -12.3080 ca         1 8B2      -0.120300
      6 C05          0.7870     2.1630   -11.6210 ca         1 8B2      -0.067500
      7 C06          0.4000     2.4160   -10.3120 ca         1 8B2      -0.164500
      8 C07          0.8650     3.5430    -9.6240 ca         1 8B2       0.292000
      9 C08          1.7250     4.4050   -10.3180 ca         1 8B2      -0.164500
     10 C09          2.0920     4.1460   -11.6280 ca         1 8B2      -0.067500
     11 N10          0.5240     3.8030    -8.2950 nh         1 8B2      -0.784400
     12 C11         -0.2800     2.8190    -7.5990 c6         1 8B2       0.158800
     13 C12         -0.2790     3.1070    -6.1080 c6         1 8B2       0.147600
     14 O13         -0.7180     4.4120    -5.8190 os         1 8B2      -0.445000
     15 C14          0.1030     5.3570    -6.4630 c6         1 8B2       0.147600
     16 H1           0.7960     5.8870    -8.3970 h1         1 8B2       0.046700
     17 H2          -0.8900     5.3730    -8.3750 h1         1 8B2       0.046700
     18 H4           2.8270     0.7310   -13.3060 hc         1 8B2       0.039367
     19 H5           3.5470     1.4790   -14.7360 hc         1 8B2       0.039367
     20 H6           2.5280     3.6560   -14.1190 h1         1 8B2       0.015700
     21 H7           0.2770     2.9780   -14.6070 hn         1 8B2       0.395500
     22 H8           1.2980     2.0640   -15.4660 hn         1 8B2       0.395500
     23 H10          0.4020     1.2820   -12.1190 ha         1 8B2       0.116500
     24 H11         -0.2830     1.7240    -9.8390 ha         1 8B2       0.112500
     25 H12          2.1300     5.2830    -9.8320 ha         1 8B2       0.112500
     26 H13          2.7590     4.8400   -12.1290 ha         1 8B2       0.116500
     27 H14         -1.3150     2.7930    -7.9740 h1         1 8B2       0.046700
     28 H15          0.1450     1.8240    -7.7440 h1         1 8B2       0.046700
     29 H16         -0.9510     2.4120    -5.6020 h1         1 8B2       0.052450
     30 H17          0.7340     2.9460    -5.7130 h1         1 8B2       0.052450
     31 H18          1.1340     5.2930    -6.0860 h1         1 8B2       0.052450
     32 H19         -0.2830     6.3490    -6.2240 h1         1 8B2       0.052450
     33 H3           4.0460     1.9980   -13.1270 hc         1 8B2       0.039367
@<TRIPOS>BOND
     1     1    11 1   
     2     1    15 1   
     3     1    16 1   
     4     1    17 1   
     5     2     3 1   
     6     2    18 1   
     7     2    19 1   
     8     2    33 1   
     9     3     4 1   
    10     3     5 1   
    11     3    20 1   
    12     4    21 1   
    13     4    22 1   
    14     5     6 ar  
    15     5    10 ar  
    16     6     7 ar  
    17     6    23 1   
    18     7     8 ar  
    19     7    24 1   
    20     8     9 ar  
    21     8    11 1   
    22     9    10 ar  
    23     9    25 1   
    24    10    26 1   
    25    11    12 1   
    26    12    13 1   
    27    12    27 1   
    28    12    28 1   
    29    13    14 1   
    30    13    29 1   
    31    13    30 1   
    32    14    15 1   
    33    15    31 1   
    34    15    32 1   
@<TRIPOS>SUBSTRUCTURE
     1 8B2         1 TEMP              0 ****  ****    0 ROOT
