@<TRIPOS>MOLECULE
8B3
   53    56     1     0     0
SMALL
No Charge or Current Charge


@<TRIPOS>ATOM
      1 C2           2.9970    -1.4900     1.3130 c2         1 8B3       0.406100
      2 C3           2.1820    -0.4190     1.4730 ce         1 8B3      -0.258900
      3 C4           1.7880     0.4980     0.2810 c6         1 8B3       0.200800
      4 C5           2.2500    -0.1950    -0.9740 cc         1 8B3      -0.241300
      5 C6           3.0770    -1.3260    -1.0150 cc         1 8B3       0.473300
      6 N11          3.4440    -1.8320    -2.1950 nd         1 8B3      -0.509800
      7 C13          2.5890     1.8700     0.3810 c3         1 8B3      -0.044700
      8 C14          2.2330     2.7820     1.5890 c3         1 8B3      -0.088600
      9 C15          0.2400     0.6410     0.1670 ca         1 8B3      -0.067300
     10 C16         -0.4060     1.8550    -0.1670 ca         1 8B3      -0.060000
     11 C17         -1.8100     1.9280    -0.2840 ca         1 8B3      -0.205300
     12 C18         -2.5760     0.7600    -0.1010 ca         1 8B3      -0.051000
     13 C19         -1.9640    -0.4790     0.1960 cp         1 8B3      -0.040000
     14 C20         -0.5560    -0.5140     0.3250 ca         1 8B3      -0.042000
     15 C39         -2.4390    -2.9540    -0.2240 ca         1 8B3       0.181000
     16 C40         -3.2320    -4.0980    -0.0390 ca         1 8B3      -0.154000
     17 C41         -4.3940    -4.0320     0.7460 ca         1 8B3      -0.079000
     18 C42         -4.7630    -2.8160     1.3430 ca         1 8B3      -0.125000
     19 C43         -3.9720    -1.6700     1.1580 ca         1 8B3      -0.072000
     20 C32         -2.7900    -1.7130     0.3750 cp         1 8B3      -0.079000
     21 C33         -2.4750     3.2610    -0.6470 c3         1 8B3       0.357300
     22 F48         -1.8940     4.3060    -0.0150 f          1 8B3      -0.115000
     23 F47         -2.3900     3.5050    -1.9740 f          1 8B3      -0.115000
     24 F46         -3.7880     3.2960    -0.3220 f          1 8B3      -0.115000
     25 C34          4.1340     1.7070     0.3230 c3         1 8B3      -0.088600
     26 C8           1.6370    -0.1210     2.7630 cg         1 8B3       0.313700
     27 N9           1.1870     0.0730     3.8220 n1         1 8B3      -0.506000
     28 N7           3.4090    -2.3520     2.3010 nv         1 8B3      -0.965000
     29 C10          2.0510     0.0230    -2.3730 cd         1 8B3      -0.085300
     30 N51          2.7960    -0.9920    -3.1240 na         1 8B3      -0.003200
     31 O1           3.5100    -1.9110     0.1290 os         1 8B3      -0.333400
     32 H2           1.5030     2.0970    -2.7690 hc         1 8B3       0.059367
     33 H3           1.3710     1.0440    -4.1830 hc         1 8B3       0.059367
     34 H4           0.1560     0.9530    -2.9000 hc         1 8B3       0.059367
     35 H5           2.3420     2.4480    -0.5170 hc         1 8B3       0.039700
     36 H6           2.7210     2.4330     2.5070 hc         1 8B3       0.037867
     37 H7           2.5810     3.8060     1.4060 hc         1 8B3       0.037867
     38 H8           1.1560     2.8250     1.7760 hc         1 8B3       0.037867
     39 H9           0.1700     2.7560    -0.3510 ha         1 8B3       0.131000
     40 H10         -3.6580     0.7950    -0.2130 ha         1 8B3       0.132000
     41 H11         -0.0780    -1.4630     0.5550 ha         1 8B3       0.132000
     42 H12         -2.9460    -5.0350    -0.5100 ha         1 8B3       0.132000
     43 H13         -5.0090    -4.9190     0.8900 ha         1 8B3       0.119000
     44 H14         -5.6640    -2.7620     1.9520 ha         1 8B3       0.121000
     45 H15         -4.2690    -0.7390     1.6360 ha         1 8B3       0.123000
     46 H16          4.5020     1.1130     1.1670 hc         1 8B3       0.037867
     47 H17          4.4540     1.2220    -0.6060 hc         1 8B3       0.037867
     48 H18          4.6260     2.6870     0.3610 hc         1 8B3       0.037867
     49 H19          3.7720    -3.2410     1.9700 hn         1 8B3       0.507000
     50 H20          2.8210    -2.4110     3.1280 hn         1 8B3       0.507000
     51 H22          2.8660    -1.1120    -4.1360 hn         1 8B3       0.380000
     52 C12          1.2260     1.0880    -3.0970 c3         1 8B3      -0.036800
     53 F50         -1.3440    -3.0540    -1.0130 f          1 8B3      -0.177000
@<TRIPOS>BOND
     1     1     2 2   
     2     1    28 1   
     3     1    31 1   
     4     2     3 1   
     5     2    26 1   
     6     3     4 1   
     7     3     7 1   
     8     3     9 1   
     9     4     5 1   
    10     4    29 2   
    11     5     6 2   
    12     5    31 1   
    13     6    30 1   
    14     7     8 1   
    15     7    25 1   
    16     7    35 1   
    17     8    36 1   
    18     8    37 1   
    19     8    38 1   
    20     9    10 ar  
    21     9    14 ar  
    22    10    11 ar  
    23    10    39 1   
    24    11    12 ar  
    25    11    21 1   
    26    12    13 ar  
    27    12    40 1   
    28    13    14 ar  
    29    13    20 1   
    30    14    41 1   
    31    15    16 ar  
    32    15    20 ar  
    33    15    53 1   
    34    16    17 ar  
    35    16    42 1   
    36    17    18 ar  
    37    17    43 1   
    38    18    19 ar  
    39    18    44 1   
    40    19    20 ar  
    41    19    45 1   
    42    21    22 1   
    43    21    23 1   
    44    21    24 1   
    45    25    46 1   
    46    25    47 1   
    47    25    48 1   
    48    26    27 3   
    49    28    49 1   
    50    28    50 1   
    51    29    30 1   
    52    29    52 1   
    53    30    51 1   
    54    32    52 1   
    55    33    52 1   
    56    34    52 1   
@<TRIPOS>SUBSTRUCTURE
     1 8B3         1 TEMP              0 ****  ****    0 ROOT
