@<TRIPOS>MOLECULE
8B3
   53    56     1     0     0
SMALL
bcc


@<TRIPOS>ATOM
      1 C2           3.0320    -1.4770     1.3150 c2         1 8B3       0.406100
      2 C3           2.1460    -0.4310     1.4050 ce         1 8B3      -0.258900
      3 C4           1.7750     0.4990     0.2520 c6         1 8B3       0.200800
      4 C5           2.2210    -0.2130    -0.9900 cc         1 8B3      -0.306600
      5 C6           3.0690    -1.3130    -0.9670 cc         1 8B3       0.538600
      6 N11          3.3730    -1.7850    -2.1470 nd         1 8B3      -0.509800
      7 C13          2.5110     1.8660     0.3740 c3         1 8B3      -0.044700
      8 C14          2.1940     2.6210     1.6640 c3         1 8B3      -0.088600
      9 C15          0.2500     0.6420     0.1660 ca         1 8B3      -0.067300
     10 C16         -0.3760     1.8410    -0.1410 ca         1 8B3      -0.078000
     11 C17         -1.7590     1.9000    -0.2810 ca         1 8B3      -0.205300
     12 C18         -2.5330     0.7630    -0.1310 ca         1 8B3      -0.069000
     13 C19         -1.9210    -0.4520     0.1670 cp         1 8B3      -0.040000
     14 C20         -0.5390    -0.4950     0.3110 ca         1 8B3      -0.060000
     15 C39         -2.4810    -2.8530    -0.3070 ca         1 8B3       0.145900
     16 C40         -3.2570    -3.9860    -0.1560 ca         1 8B3      -0.172000
     17 C41         -4.3570    -3.9360     0.6880 ca         1 8B3      -0.097000
     18 C42         -4.6660    -2.7590     1.3580 ca         1 8B3      -0.143000
     19 C43         -3.8700    -1.6370     1.1860 ca         1 8B3      -0.090000
     20 C32         -2.7520    -1.6590     0.3510 cp         1 8B3      -0.079000
     21 C33         -2.3910     3.1990    -0.6720 c3         1 8B3       0.721200
     22 F48         -1.7960     4.2450    -0.0870 f          1 8B3      -0.236300
     23 F47         -2.3080     3.4050    -1.9960 f          1 8B3      -0.236300
     24 F46         -3.6880     3.2560    -0.3530 f          1 8B3      -0.236300
     25 C34          4.0230     1.7200     0.2360 c3         1 8B3      -0.088600
     26 C8           1.5500    -0.2270     2.6620 cg         1 8B3       0.224500
     27 N9           1.0420    -0.0860     3.6930 n1         1 8B3      -0.416800
     28 N7           3.4960    -2.2000     2.3400 nv         1 8B3      -0.854600
     29 C10          1.9960    -0.0140    -2.3400 cd         1 8B3      -0.034600
     30 N51          2.7050    -0.9690    -2.9680 na         1 8B3      -0.003600
     31 O1           3.5710    -1.8840     0.1540 os         1 8B3      -0.333400
     32 H2           1.4010     1.9950    -2.7570 hc         1 8B3       0.059367
     33 H3           1.3250     0.9140    -4.1450 hc         1 8B3       0.059367
     34 H4           0.1050     0.8150    -2.8760 hc         1 8B3       0.059367
     35 H5           2.1800     2.4770    -0.4730 hc         1 8B3       0.039700
     36 H6           2.6990     2.1720     2.5200 hc         1 8B3       0.037867
     37 H7           2.5480     3.6490     1.5820 hc         1 8B3       0.037867
     38 H8           1.1290     2.6610     1.8920 hc         1 8B3       0.037867
     39 H9           0.2070     2.7400    -0.2790 ha         1 8B3       0.149000
     40 H10         -3.6080     0.8000    -0.2530 ha         1 8B3       0.150000
     41 H11         -0.0620    -1.4350     0.5600 ha         1 8B3       0.150000
     42 H12         -3.0060    -4.8880    -0.6980 ha         1 8B3       0.150000
     43 H13         -4.9700    -4.8170     0.8180 ha         1 8B3       0.137000
     44 H14         -5.5220    -2.7160     2.0170 ha         1 8B3       0.139000
     45 H15         -4.1070    -0.7240     1.7180 ha         1 8B3       0.141000
     46 H16          4.4380     1.0810     1.0180 hc         1 8B3       0.037867
     47 H17          4.3140     1.3120    -0.7310 hc         1 8B3       0.037867
     48 H18          4.4950     2.6990     0.3340 hc         1 8B3       0.037867
     49 H19          3.9100    -3.1020     2.1650 hn         1 8B3       0.451800
     50 H20          3.1420    -2.0470     3.2690 hn         1 8B3       0.451800
     51 H22          2.7630    -1.1180    -3.9630 hn         1 8B3       0.329700
     52 C12          1.1660     0.9790    -3.0700 c3         1 8B3      -0.036800
     53 F50         -1.4340    -2.9080    -1.1460 f          1 8B3      -0.141900
@<TRIPOS>BOND
     1     1     2 2   
     2     1    28 1   
     3     1    31 1   
     4     2     3 1   
     5     2    26 1   
     6     3     4 1   
     7     3     7 1   
     8     3     9 1   
     9     4     5 1   
    10     4    29 2   
    11     5     6 2   
    12     5    31 1   
    13     6    30 1   
    14     7     8 1   
    15     7    25 1   
    16     7    35 1   
    17     8    36 1   
    18     8    37 1   
    19     8    38 1   
    20     9    10 ar  
    21     9    14 ar  
    22    10    11 ar  
    23    10    39 1   
    24    11    12 ar  
    25    11    21 1   
    26    12    13 ar  
    27    12    40 1   
    28    13    14 ar  
    29    13    20 1   
    30    14    41 1   
    31    15    16 ar  
    32    15    20 ar  
    33    15    53 1   
    34    16    17 ar  
    35    16    42 1   
    36    17    18 ar  
    37    17    43 1   
    38    18    19 ar  
    39    18    44 1   
    40    19    20 ar  
    41    19    45 1   
    42    21    22 1   
    43    21    23 1   
    44    21    24 1   
    45    25    46 1   
    46    25    47 1   
    47    25    48 1   
    48    26    27 3   
    49    28    49 1   
    50    28    50 1   
    51    29    30 1   
    52    29    52 1   
    53    30    51 1   
    54    32    52 1   
    55    33    52 1   
    56    34    52 1   
@<TRIPOS>SUBSTRUCTURE
     1 8B3         1 TEMP              0 ****  ****    0 ROOT
