@<TRIPOS>MOLECULE
8B5
   30    32     1     0     0
SMALL
abcg2


@<TRIPOS>ATOM
      1 C4          14.0110    15.3960    10.7120 ca         1 8B5      -0.159000
      2 C14         16.0630    13.7790     9.6900 ca         1 8B5      -0.013000
      3 C5          13.8020    14.6260     9.5650 ca         1 8B5       0.176100
      4 C6          11.5230    15.3600     9.3590 c3         1 8B5       0.211900
      5 C11          8.9830    15.7000     6.5860 ca         1 8B5      -0.015900
      6 C7          10.3680    15.0820     8.4450 ca         1 8B5      -0.103300
      7 C8           9.6270    13.9090     8.5860 ca         1 8B5      -0.070000
      8 C9           8.5750    13.6370     7.7230 ca         1 8B5      -0.112000
      9 C10          8.2420    14.5340     6.7120 ca         1 8B5      -0.068000
     10 C12         10.0430    15.9870     7.4350 ca         1 8B5      -0.058000
     11 C13         14.8400    13.8210     9.0610 ca         1 8B5      -0.135000
     12 N1          17.7420    15.3740    12.7410 nc         1 8B5      -0.172400
     13 N2          16.8370    16.0860    13.1840 nd         1 8B5      -0.173400
     14 C3          15.2520    15.3460    11.3380 ca         1 8B5      -0.097600
     15 C1          17.5560    14.5200    11.5370 c          1 8B5       0.634100
     16 C2          15.5000    16.1360    12.5440 c          1 8B5       0.622100
     17 O2          14.7000    16.8530    13.0900 o          1 8B5      -0.439100
     18 O3          12.6510    14.5900     8.8790 os         1 8B5      -0.341100
     19 C15         16.2850    14.5440    10.8420 ca         1 8B5      -0.195600
     20 H1          13.2400    16.0260    11.1250 ha         1 8B5       0.145000
     21 H2          16.8580    13.1570     9.3020 ha         1 8B5       0.145000
     22 H3          11.7860    16.4190     9.3530 h1         1 8B5       0.054200
     23 H4          11.2960    15.0480    10.3800 h1         1 8B5       0.054200
     24 H5           9.8780    13.2110     9.3750 ha         1 8B5       0.122000
     25 H6           8.0000    12.7260     7.8340 ha         1 8B5       0.124000
     26 H7           7.4190    14.3290     6.0400 ha         1 8B5       0.134000
     27 H8          10.6100    16.9010     7.3210 ha         1 8B5       0.132000
     28 H9          14.6520    13.2360     8.1700 ha         1 8B5       0.143000
     29 O1          18.5230    13.8600    11.2360 o          1 8B5      -0.444100
     30 BR1          8.5330    16.9480     5.2030 br         1 8B5      -0.099100
@<TRIPOS>BOND
     1     1     3 ar  
     2     1    14 ar  
     3     1    20 1   
     4     2    11 ar  
     5     2    19 ar  
     6     2    21 1   
     7     3    11 ar  
     8     3    18 1   
     9     4     6 1   
    10     4    18 1   
    11     4    22 1   
    12     4    23 1   
    13     5     9 ar  
    14     5    10 ar  
    15     5    30 1   
    16     6     7 ar  
    17     6    10 ar  
    18     7     8 ar  
    19     7    24 1   
    20     8     9 ar  
    21     8    25 1   
    22     9    26 1   
    23    10    27 1   
    24    11    28 1   
    25    12    13 2   
    26    12    15 1   
    27    13    16 1   
    28    14    16 1   
    29    14    19 ar  
    30    15    19 1   
    31    15    29 2   
    32    16    17 2   
@<TRIPOS>SUBSTRUCTURE
     1 8B5         1 TEMP              0 ****  ****    0 ROOT
