@<TRIPOS>MOLECULE
8B5
   30    32     1     0     0
SMALL
No Charge or Current Charge


@<TRIPOS>ATOM
      1 C4          14.0370    15.3190    10.7860 ca         1 8B5      -0.159000
      2 C14         16.1720    13.9190     9.6070 ca         1 8B5      -0.013000
      3 C5          13.8390    14.6220     9.5740 ca         1 8B5       0.176100
      4 C6          11.4610    15.2680     9.4270 c3         1 8B5       0.211900
      5 C11          9.0980    15.6130     6.4260 ca         1 8B5      -0.015900
      6 C7          10.3090    15.0260     8.4610 ca         1 8B5      -0.103300
      7 C8           9.3850    13.9880     8.6990 ca         1 8B5      -0.070000
      8 C9           8.3230    13.7660     7.8050 ca         1 8B5      -0.112000
      9 C10          8.1780    14.5790     6.6670 ca         1 8B5      -0.068000
     10 C12         10.1610    15.8370     7.3180 ca         1 8B5      -0.058000
     11 C13         14.9090    13.9260     8.9930 ca         1 8B5      -0.135000
     12 N1          17.7790    15.3530    12.6890 nc         1 8B5      -0.172400
     13 N2          16.8390    16.0400    13.3210 nd         1 8B5      -0.173400
     14 C3          15.3060    15.3190    11.4120 ca         1 8B5      -0.097600
     15 C1          17.7030    14.6330    11.5030 c          1 8B5       0.634100
     16 C2          15.5460    16.0600    12.7140 c          1 8B5       0.622100
     17 O2          14.6420    16.6820    13.2590 o          1 8B5      -0.439100
     18 O3          12.6240    14.5890     8.9220 os         1 8B5      -0.341100
     19 C15         16.3700    14.6160    10.8170 ca         1 8B5      -0.195600
     20 H1          13.2200    15.8640    11.2500 ha         1 8B5       0.145000
     21 H2          16.9900    13.3730     9.1410 ha         1 8B5       0.145000
     22 H3          11.6470    16.3470     9.5090 h1         1 8B5       0.054200
     23 H4          11.1930    14.8900    10.4220 h1         1 8B5       0.054200
     24 H5           9.4910    13.3520     9.5750 ha         1 8B5       0.122000
     25 H6           7.6120    12.9640     7.9930 ha         1 8B5       0.124000
     26 H7           7.3560    14.4070     5.9750 ha         1 8B5       0.134000
     27 H8          10.8700    16.6380     7.1210 ha         1 8B5       0.132000
     28 H9          14.7570    13.3890     8.0610 ha         1 8B5       0.143000
     29 O1          18.6710    14.0440    11.0410 o          1 8B5      -0.444100
     30 Br1          8.9060    16.7180     4.8770 br         1 8B5      -0.099100
@<TRIPOS>BOND
     1     1     3 ar  
     2     1    14 ar  
     3     1    20 1   
     4     2    11 ar  
     5     2    19 ar  
     6     2    21 1   
     7     3    11 ar  
     8     3    18 1   
     9     4     6 1   
    10     4    18 1   
    11     4    22 1   
    12     4    23 1   
    13     5     9 ar  
    14     5    10 ar  
    15     5    30 1   
    16     6     7 ar  
    17     6    10 ar  
    18     7     8 ar  
    19     7    24 1   
    20     8     9 ar  
    21     8    25 1   
    22     9    26 1   
    23    10    27 1   
    24    11    28 1   
    25    12    13 2   
    26    12    15 1   
    27    13    16 1   
    28    14    16 1   
    29    14    19 ar  
    30    15    19 1   
    31    15    29 2   
    32    16    17 2   
@<TRIPOS>SUBSTRUCTURE
     1 8B5         1 TEMP              0 ****  ****    0 ROOT
