@<TRIPOS>MOLECULE
8B6
   21    23     1     0     0
SMALL
No Charge or Current Charge


@<TRIPOS>ATOM
      1 C4           3.0410     0.9620     0.0070 cc         1 8B6      -0.345200
      2 C5           3.1760    -0.5000    -0.0690 c          1 8B6       0.676300
      3 CA          -3.8110    -0.5840     0.0700 cc         1 8B6      -0.066900
      4 O            4.2650    -1.0530    -0.1190 o          1 8B6      -0.480000
      5 CB          -3.2020     0.6560     0.1200 cd         1 8B6      -0.227200
      6 CG          -1.7850     0.4490     0.0800 ca         1 8B6      -0.245800
      7 CD1         -0.6880     1.3180     0.1010 ca         1 8B6       0.259100
      8 CD2         -1.6360    -0.9100     0.0090 ca         1 8B6       0.149100
      9 CE1          0.6060     0.7550     0.0460 ca         1 8B6      -0.220800
     10 CE2         -0.3700    -1.4970    -0.0460 ca         1 8B6      -0.178000
     11 CZ           0.7550    -0.6510    -0.0270 ca         1 8B6       0.229100
     12 OH           2.0070    -1.2160    -0.0810 os         1 8B6      -0.342200
     13 C3           1.8140     1.5780     0.0630 cd         1 8B6      -0.040200
     14 O1          -0.8760     2.6630     0.1720 oh         1 8B6      -0.518100
     15 O4          -2.8400    -1.5860    -0.0000 os         1 8B6      -0.165200
     16 H1           3.9710     1.5180     0.0160 ha         1 8B6       0.215000
     17 H2          -4.8550    -0.8860     0.0760 h4         1 8B6       0.245000
     18 H3          -3.7330     1.6060     0.1780 ha         1 8B6       0.211000
     19 H4          -0.2560    -2.5750    -0.1030 ha         1 8B6       0.160000
     20 H5           1.7510     2.6640     0.1190 ha         1 8B6       0.202000
     21 H6          -1.8420     2.8180     0.2000 ho         1 8B6       0.482000
@<TRIPOS>BOND
     1     1     2 1   
     2     1    13 2   
     3     1    16 1   
     4     2     4 2   
     5     2    12 1   
     6     3     5 2   
     7     3    15 1   
     8     3    17 1   
     9     5     6 1   
    10     5    18 1   
    11     6     7 ar  
    12     6     8 ar  
    13     7     9 ar  
    14     7    14 1   
    15     8    10 ar  
    16     8    15 1   
    17     9    11 ar  
    18     9    13 1   
    19    10    11 ar  
    20    10    19 1   
    21    11    12 1   
    22    13    20 1   
    23    14    21 1   
@<TRIPOS>SUBSTRUCTURE
     1 8B6         1 TEMP              0 ****  ****    0 ROOT
