@<TRIPOS>MOLECULE
8B6
   21    23     1     0     0
SMALL
abcg2


@<TRIPOS>ATOM
      1 C4           2.9940     0.9570     0.0080 cc         1 8B6      -0.345200
      2 C5           3.1200    -0.4800    -0.0690 c          1 8B6       0.676300
      3 CA          -3.7430    -0.5900     0.0660 cc         1 8B6      -0.066900
      4 O            4.1490    -1.1060    -0.1260 o          1 8B6      -0.480000
      5 CB          -3.2280     0.6500     0.1160 cd         1 8B6      -0.227200
      6 CG          -1.7990     0.4750     0.0800 ca         1 8B6      -0.245800
      7 CD1         -0.6990     1.3270     0.1010 ca         1 8B6       0.259100
      8 CD2         -1.5880    -0.9050     0.0100 ca         1 8B6       0.149100
      9 CE1          0.5840     0.7610     0.0470 ca         1 8B6      -0.220800
     10 CE2         -0.3460    -1.5120    -0.0440 ca         1 8B6      -0.178000
     11 CZ           0.7250    -0.6390    -0.0250 ca         1 8B6       0.229100
     12 OH           1.9600    -1.1910    -0.0780 os         1 8B6      -0.342200
     13 C3           1.7840     1.5430     0.0610 cd         1 8B6      -0.040200
     14 O1          -0.7960     2.6560     0.1680 oh         1 8B6      -0.518100
     15 O4          -2.7690    -1.5440     0.0030 os         1 8B6      -0.165200
     16 H1           3.9060     1.5360     0.0190 ha         1 8B6       0.215000
     17 H2          -4.7580    -0.9520     0.0670 h4         1 8B6       0.245000
     18 H3          -3.7910     1.5670     0.1700 ha         1 8B6       0.211000
     19 H4          -0.2150    -2.5840    -0.0970 ha         1 8B6       0.160000
     20 H5           1.7170     2.6210     0.1160 ha         1 8B6       0.202000
     21 H6          -1.7160     2.9410     0.2190 ho         1 8B6       0.482000
@<TRIPOS>BOND
     1     1     2 1   
     2     1    13 2   
     3     1    16 1   
     4     2     4 2   
     5     2    12 1   
     6     3     5 2   
     7     3    15 1   
     8     3    17 1   
     9     5     6 1   
    10     5    18 1   
    11     6     7 ar  
    12     6     8 ar  
    13     7     9 ar  
    14     7    14 1   
    15     8    10 ar  
    16     8    15 1   
    17     9    11 ar  
    18     9    13 1   
    19    10    11 ar  
    20    10    19 1   
    21    11    12 1   
    22    13    20 1   
    23    14    21 1   
@<TRIPOS>SUBSTRUCTURE
     1 8B6         1 TEMP              0 ****  ****    0 ROOT
