@<TRIPOS>MOLECULE
8B9
   29    29     1     0     0
SMALL
No Charge or Current Charge


@<TRIPOS>ATOM
      1 C1          23.6010    11.0330    13.1470 c6         1 8B9       0.378300
      2 C2          25.0230    11.4860    13.6220 c6         1 8B9       0.092700
      3 C3          26.0290    10.3070    13.4540 c6         1 8B9       0.157300
      4 C4          25.4990     9.0340    14.1520 c6         1 8B9      -0.140400
      5 C5          24.0880     8.6810    13.6190 c6         1 8B9       0.174300
      6 C6          23.4440     7.4620    14.3550 c3         1 8B9       0.162600
      7 C7          25.0270    13.9720    13.1200 c          1 8B9       0.610100
      8 C8          25.6930    15.0490    12.2740 c3         1 8B9      -0.180100
      9 O3          27.3140    10.6510    13.9910 oh         1 8B9      -0.645000
     10 O6          24.1980     6.2450    14.1970 oh         1 8B9      -0.724000
     11 O7          24.1390    14.2180    13.9230 o          1 8B9      -0.601100
     12 N2          25.4970    12.7000    12.9140 ns         1 8B9      -0.497900
     13 O5          23.2050     9.8160    13.8070 os         1 8B9      -0.486000
     14 O1          23.5370    10.7950    11.7410 oh         1 8B9      -0.688000
     15 H1          22.8820    11.8260    13.4120 h2         1 8B9       0.075700
     16 H2          24.9510    11.7230    14.6940 h1         1 8B9       0.108700
     17 H3          26.1280    10.0910    12.3790 h1         1 8B9       0.040700
     18 H4          26.1850     8.1950    13.9740 hc         1 8B9       0.065700
     19 H5A         25.4590     9.1870    15.2400 hc         1 8B9       0.065700
     20 H5          24.1450     8.4370    12.5470 h1         1 8B9       0.057700
     21 H61         23.3520     7.7130    15.4210 h1         1 8B9       0.033700
     22 H62         22.4270     7.3260    13.9610 h1         1 8B9       0.033700
     23 H81         25.2890    16.0490    12.4680 hc         1 8B9       0.059033
     24 H82         26.7760    15.0120    12.4360 hc         1 8B9       0.059033
     25 H83         25.6060    14.7760    11.2160 hc         1 8B9       0.059033
     26 HO3         27.9170     9.9010    13.7940 ho         1 8B9       0.443000
     27 HO6         23.7160     5.5410    14.6920 ho         1 8B9       0.509000
     28 HN2         26.2410    12.5960    12.2360 hn         1 8B9       0.319500
     29 HO1         22.6350    10.4440    11.5870 ho         1 8B9       0.457000
@<TRIPOS>BOND
     1     1     2 1   
     2     1    13 1   
     3     1    14 1   
     4     1    15 1   
     5     2     3 1   
     6     2    12 1   
     7     2    16 1   
     8     3     4 1   
     9     3     9 1   
    10     3    17 1   
    11     4     5 1   
    12     4    18 1   
    13     4    19 1   
    14     5     6 1   
    15     5    13 1   
    16     5    20 1   
    17     6    10 1   
    18     6    21 1   
    19     6    22 1   
    20     7     8 1   
    21     7    11 2   
    22     7    12 1   
    23     8    23 1   
    24     8    24 1   
    25     8    25 1   
    26     9    26 1   
    27    10    27 1   
    28    12    28 1   
    29    14    29 1   
@<TRIPOS>SUBSTRUCTURE
     1 8B9         1 TEMP              0 ****  ****    0 ROOT
