@<TRIPOS>MOLECULE
8B9
   29    29     1     0     0
SMALL
bcc


@<TRIPOS>ATOM
      1 C1          23.4890    10.8730    12.9890 c6         1 8B9       0.331900
      2 C2          24.8180    11.4380    13.5030 c6         1 8B9       0.092700
      3 C3          25.9150    10.3770    13.4480 c6         1 8B9       0.134100
      4 C4          25.4300     9.1240    14.1690 c6         1 8B9      -0.140400
      5 C5          24.0980     8.6550    13.6080 c6         1 8B9       0.151100
      6 C6          23.4890     7.5030    14.3890 c3         1 8B9       0.139400
      7 C7          25.4430    13.8190    13.3410 c          1 8B9       0.677100
      8 C8          25.8560    14.9040    12.3770 c3         1 8B9      -0.180100
      9 O3          27.0660    10.9270    14.0430 oh         1 8B9      -0.582800
     10 O6          24.3650     6.4040    14.3030 oh         1 8B9      -0.601800
     11 O7          25.3740    14.0250    14.5440 o          1 8B9      -0.601100
     12 N2          25.1680    12.6290    12.7730 ns         1 8B9      -0.564900
     13 O5          23.1390     9.7030    13.6670 os         1 8B9      -0.439600
     14 O1          23.6160    10.6780    11.6150 oh         1 8B9      -0.625800
     15 H1          22.6860    11.5840    13.2150 h2         1 8B9       0.075700
     16 H2          24.6690    11.7220    14.5480 h1         1 8B9       0.108700
     17 H3          26.1090    10.1240    12.3960 h1         1 8B9       0.040700
     18 H4          26.1730     8.3290    14.0710 hc         1 8B9       0.065700
     19 H5A         25.3210     9.3420    15.2380 hc         1 8B9       0.065700
     20 H5          24.2360     8.3320    12.5670 h1         1 8B9       0.057700
     21 H61         23.3300     7.8190    15.4280 h1         1 8B9       0.033700
     22 H62         22.5040     7.2700    13.9640 h1         1 8B9       0.033700
     23 H81         25.2620    15.7990    12.5570 hc         1 8B9       0.059033
     24 H82         26.8990    15.1670    12.5590 hc         1 8B9       0.059033
     25 H83         25.7540    14.6240    11.3300 hc         1 8B9       0.059033
     26 HO3         27.7950    10.3130    13.9100 ho         1 8B9       0.404000
     27 HO6         23.9930     5.6830    14.8190 ho         1 8B9       0.410000
     28 HN2         25.2620    12.5420    11.7730 hn         1 8B9       0.319500
     29 HO1         22.7430    10.5570    11.2270 ho         1 8B9       0.418000
@<TRIPOS>BOND
     1     1     2 1   
     2     1    13 1   
     3     1    14 1   
     4     1    15 1   
     5     2     3 1   
     6     2    12 1   
     7     2    16 1   
     8     3     4 1   
     9     3     9 1   
    10     3    17 1   
    11     4     5 1   
    12     4    18 1   
    13     4    19 1   
    14     5     6 1   
    15     5    13 1   
    16     5    20 1   
    17     6    10 1   
    18     6    21 1   
    19     6    22 1   
    20     7     8 1   
    21     7    11 2   
    22     7    12 1   
    23     8    23 1   
    24     8    24 1   
    25     8    25 1   
    26     9    26 1   
    27    10    27 1   
    28    12    28 1   
    29    14    29 1   
@<TRIPOS>SUBSTRUCTURE
     1 8B9         1 TEMP              0 ****  ****    0 ROOT
