@<TRIPOS>MOLECULE
8BB
   31    31     1     0     0
SMALL
bcc


@<TRIPOS>ATOM
      1 N            3.6760    -0.7850    -0.9150 nv         1 8BB      -0.855600
      2 N1           1.8710     0.1960     0.2250 ns         1 8BB      -0.509100
      3 CA           3.2420     0.1390    -0.0290 c2         1 8BB       0.350600
      4 CB           4.0300     1.0540     0.5960 c2         1 8BB      -0.304400
      5 SG           5.7500     1.1600     0.2750 sh         1 8BB      -0.369400
      6 C88          0.8820    -0.6610    -0.1590 c          1 8BB       0.682100
      7 O89          1.0860    -1.6780    -0.8010 o          1 8BB      -0.602100
      8 C90         -2.4780     1.1850    -0.4760 c6         1 8BB      -0.053900
      9 C91         -3.4240     0.0140    -0.2410 c6         1 8BB      -0.192700
     10 C92         -2.8500    -0.9230     0.8220 c6         1 8BB      -0.053900
     11 C93         -1.4440    -1.3970     0.4690 c6         1 8BB      -0.068900
     12 C94         -0.5060    -0.2140     0.2450 c6         1 8BB      -0.136700
     13 C95         -1.0700     0.7220    -0.8350 c6         1 8BB      -0.068900
     14 HN           3.0800    -1.5700    -1.1190 hn         1 8BB       0.443300
     15 H2           4.6690    -0.9460    -0.9380 hn         1 8BB       0.443300
     16 HN1          1.5850     0.9820     0.7900 hn         1 8BB       0.335500
     17 HB           3.5820     1.7910     1.2490 h4         1 8BB       0.144000
     18 HSG          6.2490     0.4300     1.2880 hs         1 8BB       0.167800
     19 H90         -2.8600     1.8250    -1.2730 hc         1 8BB       0.045700
     20 H90A        -2.4340     1.8080     0.4240 hc         1 8BB       0.045700
     21 H91         -3.4790    -0.5620    -1.1780 hc         1 8BB       0.029700
     22 H92         -2.8250    -0.4050     1.7890 hc         1 8BB       0.045700
     23 H92A        -3.5050    -1.7850     0.9480 hc         1 8BB       0.045700
     24 H93         -1.0540    -2.0390     1.2620 hc         1 8BB       0.033450
     25 H93A        -1.4830    -2.0050    -0.4390 hc         1 8BB       0.033450
     26 H94         -0.4390     0.3570     1.1790 hc         1 8BB       0.053700
     27 H95         -1.0880     0.1900    -1.7920 hc         1 8BB       0.033450
     28 H95A        -0.4130     1.5860    -0.9640 hc         1 8BB       0.033450
     29 C96         -4.8690     0.4430     0.0940 c          1 8BB       0.930600
     30 O97         -5.1650     1.6470    -0.0480 o          1 8BB      -0.839800
     31 O98         -5.6450    -0.4620     0.4680 o          1 8BB      -0.839800
@<TRIPOS>BOND
     1     1     3 1   
     2     1    14 1   
     3     1    15 1   
     4     2     3 1   
     5     2     6 1   
     6     2    16 1   
     7     3     4 2   
     8     4     5 1   
     9     4    17 1   
    10     5    18 1   
    11     6     7 2   
    12     6    12 1   
    13     8     9 1   
    14     8    13 1   
    15     8    19 1   
    16     8    20 1   
    17     9    10 1   
    18     9    21 1   
    19     9    29 1   
    20    10    11 1   
    21    10    22 1   
    22    10    23 1   
    23    11    12 1   
    24    11    24 1   
    25    11    25 1   
    26    12    13 1   
    27    12    26 1   
    28    13    27 1   
    29    13    28 1   
    30    29    30 1   
    31    29    31 1   
@<TRIPOS>SUBSTRUCTURE
     1 8BB         1 TEMP              0 ****  ****    0 ROOT
