@<TRIPOS>MOLECULE
8BC
   21    21     1     0     0
SMALL
bcc


@<TRIPOS>ATOM
      1 C01         -3.8470     3.9640   -11.5490 c3         1 8BC      -0.177100
      2 C02         -3.0080     3.3360   -10.4620 c          1 8BC       0.673100
      3 O03         -2.8850     2.1250   -10.3730 o          1 8BC      -0.643100
      4 N04         -2.4060     4.2350    -9.6490 ns         1 8BC      -0.484100
      5 C05         -1.5040     4.0190    -8.6090 ca         1 8BC       0.110600
      6 C06         -1.3870     2.7940    -7.9490 ca         1 8BC      -0.200000
      7 C07         -0.5080     2.6630    -6.8870 ca         1 8BC      -0.106000
      8 C08          0.2630     3.7320    -6.4630 ca         1 8BC      -0.236000
      9 C09          0.1440     4.9280    -7.1460 ca         1 8BC       0.176900
     10 F10          0.8840     5.9530    -6.6960 f          1 8BC      -0.140900
     11 C11         -0.7070     5.1210    -8.2250 ca         1 8BC      -0.228600
     12 C12         -0.7530     6.4560    -8.9740 c          1 8BC       0.942200
     13 O13          0.3010     7.0900    -9.0720 o          1 8BC      -0.807800
     14 O14         -1.8710     6.7820    -9.4470 o          1 8BC      -0.807800
     15 H1          -4.7800     3.4150   -11.6580 hc         1 8BC       0.052700
     16 H2          -4.0750     5.0140   -11.3730 hc         1 8BC       0.052700
     17 H3          -3.3130     3.8910   -12.4990 hc         1 8BC       0.052700
     18 H4          -2.5230     5.2410    -9.8270 hn         1 8BC       0.391500
     19 H5          -1.9910     1.9530    -8.2460 ha         1 8BC       0.147000
     20 H6          -0.4340     1.7130    -6.3730 ha         1 8BC       0.107000
     21 H7           0.9380     3.6470    -5.6220 ha         1 8BC       0.124000
@<TRIPOS>BOND
     1     1     2 1   
     2     1    15 1   
     3     1    16 1   
     4     1    17 1   
     5     2     3 2   
     6     2     4 1   
     7     4     5 1   
     8     4    18 1   
     9     5     6 ar  
    10     5    11 ar  
    11     6     7 ar  
    12     6    19 1   
    13     7     8 ar  
    14     7    20 1   
    15     8     9 ar  
    16     8    21 1   
    17     9    10 1   
    18     9    11 ar  
    19    11    12 1   
    20    12    13 1   
    21    12    14 1   
@<TRIPOS>SUBSTRUCTURE
     1 8BC         1 TEMP              0 ****  ****    0 ROOT
