@<TRIPOS>MOLECULE
8BC
   21    21     1     0     0
SMALL
No Charge or Current Charge


@<TRIPOS>ATOM
      1 C01         -3.9220     3.9390   -11.5860 c3         1 8BC      -0.177100
      2 C02         -3.0390     3.2850   -10.5260 c          1 8BC       0.606100
      3 O03         -2.9650     2.0650   -10.4190 o          1 8BC      -0.643100
      4 N04         -2.3420     4.1880    -9.7390 ns         1 8BC      -0.158000
      5 C05         -1.4670     4.0220    -8.6290 ca         1 8BC       0.018000
      6 C06         -1.4010     2.8140    -7.8990 ca         1 8BC      -0.182000
      7 C07         -0.5390     2.6860    -6.8000 ca         1 8BC      -0.088000
      8 C08          0.2630     3.7680    -6.4130 ca         1 8BC      -0.218000
      9 C09          0.2030     4.9740    -7.1240 ca         1 8BC       0.212000
     10 F10          0.9680     6.0090    -6.7090 f          1 8BC      -0.176000
     11 C11         -0.6540     5.1140    -8.2320 ca         1 8BC      -0.228600
     12 C12         -0.6830     6.4170    -8.9760 c          1 8BC       0.731600
     13 O13          0.3620     6.8360    -9.4500 o          1 8BC      -0.702500
     14 O14         -1.7680     6.9510    -9.1510 o          1 8BC      -0.702500
     15 H1          -4.4570     3.2070   -12.2030 hc         1 8BC       0.052700
     16 H2          -4.6120     4.6360   -11.0970 hc         1 8BC       0.052700
     17 H3          -3.3100     4.6110   -12.1980 hc         1 8BC       0.052700
     18 H4          -2.5020     5.1570    -9.9850 hn         1 8BC       0.225000
     19 H5          -2.0260     1.9660    -8.1620 ha         1 8BC       0.129000
     20 H6          -0.4990     1.7510    -6.2440 ha         1 8BC       0.089000
     21 H7           0.9270     3.6760    -5.5570 ha         1 8BC       0.106000
@<TRIPOS>BOND
     1     1     2 1   
     2     1    15 1   
     3     1    16 1   
     4     1    17 1   
     5     2     3 2   
     6     2     4 1   
     7     4     5 1   
     8     4    18 1   
     9     5     6 ar  
    10     5    11 ar  
    11     6     7 ar  
    12     6    19 1   
    13     7     8 ar  
    14     7    20 1   
    15     8     9 ar  
    16     8    21 1   
    17     9    10 1   
    18     9    11 ar  
    19    11    12 1   
    20    12    13 1   
    21    12    14 1   
@<TRIPOS>SUBSTRUCTURE
     1 8BC         1 TEMP              0 ****  ****    0 ROOT
