@<TRIPOS>MOLECULE
8BE
   34    35     1     0     0
SMALL
No Charge or Current Charge


@<TRIPOS>ATOM
      1 C4          13.7530    14.9640     9.5670 ca         1 8BE       0.203100
      2 C14         16.2460    15.1030    10.9150 ca         1 8BE      -0.224600
      3 C5          11.3220    15.3450     9.3890 c3         1 8BE       0.211900
      4 C6          10.2350    15.0900     8.3530 ca         1 8BE      -0.093300
      5 C11         10.0790    15.9660     7.2610 ca         1 8BE      -0.056000
      6 C7           9.3800    13.9750     8.4740 ca         1 8BE      -0.090000
      7 C8           8.3790    13.7420     7.5150 ca         1 8BE      -0.110000
      8 C9           8.2260    14.6210     6.4290 ca         1 8BE      -0.077000
      9 C10          9.0770    15.7310     6.3040 ca         1 8BE      -0.021900
     10 C12         14.9100    14.4700     8.9620 ca         1 8BE      -0.193000
     11 C13         16.1430    14.5370     9.6240 ca         1 8BE       0.008000
     12 N1          17.7740    15.6600    12.7830 nt         1 8BE      -0.601000
     13 C3          13.8310    15.5320    10.8520 ca         1 8BE      -0.309000
     14 C1          13.9900    16.6960    13.4870 c3         1 8BE       0.154900
     15 C2          15.0680    15.6060    11.5320 ca         1 8BE       0.215100
     16 O2          12.5710    14.8690     8.8630 os         1 8BE      -0.338100
     17 Br1          8.8730    16.9260     4.8250 br         1 8BE      -0.094100
     18 C15         17.6190    15.1330    11.5560 c          1 8BE       0.629700
     19 O3          18.6080    14.6910    10.9940 o          1 8BE      -0.630100
     20 H1          11.3750    16.4220     9.6000 h1         1 8BE       0.044700
     21 H2          11.0710    14.8250    10.3230 h1         1 8BE       0.044700
     22 H3          10.7360    16.8270     7.1540 ha         1 8BE       0.142000
     23 H4           9.4930    13.2880     9.3110 ha         1 8BE       0.115000
     24 H5           7.7220    12.8810     7.6140 ha         1 8BE       0.120000
     25 H6           7.4510    14.4400     5.6870 ha         1 8BE       0.131000
     26 H7          14.8510    14.0310     7.9690 ha         1 8BE       0.137000
     27 H8          17.0240    14.1420     9.1210 ha         1 8BE       0.147000
     28 H9          18.6880    15.6790    13.2070 hn         1 8BE       0.321000
     29 H10         16.9660    16.0300    13.2630 hn         1 8BE       0.321000
     30 H11         12.9310    15.9130    11.3180 ha         1 8BE       0.120000
     31 H12         14.2860    17.0850    14.4690 h1         1 8BE       0.045033
     32 H13         13.5370    17.5190    12.9190 h1         1 8BE       0.045033
     33 H14         13.2340    15.9170    13.6460 h1         1 8BE       0.045033
     34 O1          15.1360    16.1650    12.7960 os         1 8BE      -0.366100
@<TRIPOS>BOND
     1     1    10 ar  
     2     1    13 ar  
     3     1    16 1   
     4     2    11 ar  
     5     2    15 ar  
     6     2    18 1   
     7     3     4 1   
     8     3    16 1   
     9     3    20 1   
    10     3    21 1   
    11     4     5 ar  
    12     4     6 ar  
    13     5     9 ar  
    14     5    22 1   
    15     6     7 ar  
    16     6    23 1   
    17     7     8 ar  
    18     7    24 1   
    19     8     9 ar  
    20     8    25 1   
    21     9    17 1   
    22    10    11 ar  
    23    10    26 1   
    24    11    27 1   
    25    12    18 1   
    26    12    28 1   
    27    12    29 1   
    28    13    15 ar  
    29    13    30 1   
    30    14    31 1   
    31    14    32 1   
    32    14    33 1   
    33    14    34 1   
    34    15    34 1   
    35    18    19 2   
@<TRIPOS>SUBSTRUCTURE
     1 8BE         1 TEMP              0 ****  ****    0 ROOT
