@<TRIPOS>MOLECULE
8BE
   34    35     1     0     0
SMALL
bcc


@<TRIPOS>ATOM
      1 C4          13.7440    14.9560     9.5500 ca         1 8BE       0.203100
      2 C14         16.2130    15.3420    10.8440 ca         1 8BE      -0.224600
      3 C5          11.3710    15.1140     9.4480 c3         1 8BE       0.188700
      4 C6          10.2960    14.9860     8.4070 ca         1 8BE      -0.093300
      5 C11         10.5320    15.3750     7.0910 ca         1 8BE      -0.074000
      6 C7           9.0370    14.5230     8.7680 ca         1 8BE      -0.108000
      7 C8           8.0180    14.4520     7.8280 ca         1 8BE      -0.128000
      8 C9           8.2440    14.8300     6.5130 ca         1 8BE      -0.095000
      9 C10          9.5070    15.2870     6.1630 ca         1 8BE      -0.021900
     10 C12         14.9350    14.7410     8.8570 ca         1 8BE      -0.211000
     11 C13         16.1300    14.9340     9.5100 ca         1 8BE      -0.010000
     12 N1          17.7330    15.9890    12.6430 nt         1 8BE      -0.668000
     13 C3          13.7780    15.3490    10.8830 ca         1 8BE      -0.327000
     14 C1          13.8610    16.1300    13.5520 c3         1 8BE       0.131700
     15 C2          15.0000    15.5420    11.5280 ca         1 8BE       0.215100
     16 O2          12.6100    14.7590     8.8630 os         1 8BE      -0.314900
     17 BR1          9.8420    15.8030     4.3760 br         1 8BE      -0.094100
     18 C15         17.5940    15.5210    11.3940 c          1 8BE       0.696700
     19 O3          18.5710    15.2540    10.7010 o          1 8BE      -0.630100
     20 H1          11.4080    16.1460     9.8150 h1         1 8BE       0.044700
     21 H2          11.1410    14.4690    10.3020 h1         1 8BE       0.044700
     22 H3          11.5070    15.7410     6.7950 ha         1 8BE       0.160000
     23 H4           8.8480    14.2120     9.7880 ha         1 8BE       0.133000
     24 H5           7.0410    14.0890     8.1170 ha         1 8BE       0.138000
     25 H6           7.4490    14.7650     5.7830 ha         1 8BE       0.149000
     26 H7          14.9120    14.4340     7.8190 ha         1 8BE       0.155000
     27 H8          17.0510    14.7730     8.9680 ha         1 8BE       0.165000
     28 H9          18.6610    16.1100    13.0140 hn         1 8BE       0.321000
     29 H10         16.9470    16.2040    13.2310 hn         1 8BE       0.321000
     30 H11         12.8570    15.5000    11.4260 ha         1 8BE       0.138000
     31 H12         14.1720    16.4190    14.5520 h1         1 8BE       0.045033
     32 H13         13.2570    16.9310    13.1220 h1         1 8BE       0.045033
     33 H14         13.2630    15.2190    13.6160 h1         1 8BE       0.045033
     34 O1          15.0540    15.9210    12.8150 os         1 8BE      -0.342900
@<TRIPOS>BOND
     1     1    10 ar  
     2     1    13 ar  
     3     1    16 1   
     4     2    11 ar  
     5     2    15 ar  
     6     2    18 1   
     7     3     4 1   
     8     3    16 1   
     9     3    20 1   
    10     3    21 1   
    11     4     5 ar  
    12     4     6 ar  
    13     5     9 ar  
    14     5    22 1   
    15     6     7 ar  
    16     6    23 1   
    17     7     8 ar  
    18     7    24 1   
    19     8     9 ar  
    20     8    25 1   
    21     9    17 1   
    22    10    11 ar  
    23    10    26 1   
    24    11    27 1   
    25    12    18 1   
    26    12    28 1   
    27    12    29 1   
    28    13    15 ar  
    29    13    30 1   
    30    14    31 1   
    31    14    32 1   
    32    14    33 1   
    33    14    34 1   
    34    15    34 1   
    35    18    19 2   
@<TRIPOS>SUBSTRUCTURE
     1 8BE         1 TEMP              0 ****  ****    0 ROOT
