@<TRIPOS>MOLECULE
8BF
   79    82     1     0     0
SMALL
No Charge or Current Charge


@<TRIPOS>ATOM
      1 O35        -11.2100    -1.9300     2.3130 oh         1 8BF      -0.533100
      2 C26        -10.1730    -1.4540     1.5680 ca         1 8BF       0.141100
      3 C25        -10.3110    -0.2390     0.8830 ca         1 8BF      -0.174500
      4 C24         -9.2480     0.2620     0.1120 ca         1 8BF      -0.060000
      5 C27         -8.9720    -2.1740     1.4830 ca         1 8BF      -0.174500
      6 C28         -7.9060    -1.6760     0.7120 ca         1 8BF      -0.060000
      7 C23         -8.0340    -0.4500     0.0220 ca         1 8BF      -0.148300
      8 C22         -6.8910     0.1130    -0.8240 c3         1 8BF       0.221600
      9 O34         -6.7760    -0.6580    -2.0220 oh         1 8BF      -0.649000
     10 C21         -5.5320     0.1310    -0.0810 c3         1 8BF      -0.111400
     11 C20         -4.4230     0.9190    -0.8210 c3         1 8BF      -0.073400
     12 C19         -3.0890     0.9590    -0.0320 c3         1 8BF      -0.077400
     13 C18         -1.8700     1.5860    -0.7840 c3         1 8BF      -0.047700
     14 C33         -2.1250     3.0850    -1.0900 c3         1 8BF      -0.086100
     15 C17         -0.5220     1.3470     0.0380 c5         1 8BF      -0.053700
     16 C13          0.8380     1.9010    -0.5360 c5         1 8BF      -0.034000
     17 C32          1.0740     1.5150    -2.0350 c3         1 8BF      -0.079100
     18 C12          1.1270     3.4510    -0.3720 c6         1 8BF      -0.062400
     19 C11          2.6320     3.8720    -0.6120 c6         1 8BF      -0.072400
     20 C10          3.6320     3.0400     0.2410 c6         1 8BF      -0.042200
     21 C16         -0.1890    -0.1850     0.2450 c5         1 8BF      -0.077400
     22 C15          1.3690    -0.3020     0.3350 c5         1 8BF      -0.071400
     23 C14          1.8060     1.1790     0.4930 c5         1 8BF      -0.035500
     24 C9           3.3150     1.5350     0.2610 c2         1 8BF      -0.079400
     25 C8           4.2230     0.5220     0.1860 ce         1 8BF      -0.189000
     26 C7           5.6860     0.6850     0.0560 ce         1 8BF      -0.161000
     27 C6           6.5940    -0.2920    -0.1990 c2         1 8BF      -0.106400
     28 C1           8.0890     0.0160    -0.2840 c6         1 8BF      -0.032200
     29 C5           6.2880    -1.7720    -0.4450 c6         1 8BF      -0.032200
     30 C4           7.0830    -2.6720     0.5310 c6         1 8BF       0.212000
     31 O30          6.8070    -4.0480     0.2540 oh         1 8BF      -0.653500
     32 C3           8.5910    -2.3760     0.4550 c2         1 8BF      -0.199400
     33 C31          9.5520    -3.3030     0.2530 c2         1 8BF      -0.298000
     34 C2           8.9420    -0.9000     0.6340 c6         1 8BF       0.212000
     35 O29          8.7690    -0.5490     2.0070 oh         1 8BF      -0.653500
     36 H1         -10.9370    -2.7820     2.7160 ho         1 8BF       0.464000
     37 H2         -11.2430     0.3170     0.9470 ha         1 8BF       0.120500
     38 H3          -9.3700     1.2050    -0.4170 ha         1 8BF       0.110000
     39 H4          -8.8560    -3.1180     2.0090 ha         1 8BF       0.120500
     40 H5          -6.9840    -2.2510     0.6550 ha         1 8BF       0.110000
     41 H6          -7.1370     1.1540    -1.0790 h1         1 8BF       0.073700
     42 H7          -6.7970    -1.5980    -1.7470 ho         1 8BF       0.437000
     43 H8          -5.6830     0.5850     0.9060 hc         1 8BF       0.045700
     44 H9          -5.1860    -0.8950     0.0930 hc         1 8BF       0.045700
     45 H10         -4.2470     0.4630    -1.8030 hc         1 8BF       0.044700
     46 H11         -4.7880     1.9370    -0.9970 hc         1 8BF       0.044700
     47 H12         -3.2460     1.4980     0.9110 hc         1 8BF       0.037700
     48 H13         -2.8490    -0.0740     0.2420 hc         1 8BF       0.037700
     49 H14         -1.8480     1.0860    -1.7770 hc         1 8BF       0.047700
     50 H15         -1.4160     3.4510    -1.8390 hc         1 8BF       0.033033
     51 H16         -3.1180     3.2570    -1.5160 hc         1 8BF       0.033033
     52 H17         -2.0330     3.6940    -0.1830 hc         1 8BF       0.033033
     53 H18         -0.7020     1.8040     1.0190 hc         1 8BF       0.043700
     54 H19          0.5010     2.1670    -2.7040 hc         1 8BF       0.034367
     55 H20          2.1290     1.6050    -2.3170 hc         1 8BF       0.034367
     56 H21          0.7690     0.4890    -2.2630 hc         1 8BF       0.034367
     57 H22          0.5040     4.0410    -1.0520 hc         1 8BF       0.040200
     58 H23          0.8350     3.7640     0.6410 hc         1 8BF       0.040200
     59 H24          2.8780     3.7510    -1.6750 hc         1 8BF       0.040200
     60 H25          2.7590     4.9410    -0.3940 hc         1 8BF       0.040200
     61 H26          4.6420     3.2410    -0.1310 hc         1 8BF       0.046700
     62 H27          3.6080     3.4090     1.2750 hc         1 8BF       0.046700
     63 H28         -0.6650    -0.5670     1.1560 hc         1 8BF       0.040200
     64 H29         -0.5670    -0.7980    -0.5810 hc         1 8BF       0.040200
     65 H30          1.6840    -0.9190     1.1830 hc         1 8BF       0.044700
     66 H31          1.7760    -0.7650    -0.5710 hc         1 8BF       0.044700
     67 H32          1.5670     1.5010     1.5160 hc         1 8BF       0.052700
     68 H33          3.8830    -0.5050     0.2560 ha         1 8BF       0.172000
     69 H34          6.0670     1.6940     0.2030 ha         1 8BF       0.170000
     70 H35          8.4170    -0.1220    -1.3230 hc         1 8BF       0.058450
     71 H36          8.2900     1.0680    -0.0440 hc         1 8BF       0.058450
     72 H37          5.2220    -2.0030    -0.3610 hc         1 8BF       0.058450
     73 H38          6.5660    -2.0240    -1.4770 hc         1 8BF       0.058450
     74 H39          6.7420    -2.4360     1.5510 h1         1 8BF       0.042200
     75 H40          7.3190    -4.5610     0.9150 ho         1 8BF       0.441500
     76 H41         10.6070    -3.0290     0.2090 ha         1 8BF       0.167000
     77 H42          9.3370    -4.3620     0.1120 ha         1 8BF       0.167000
     78 H43          9.9970    -0.7490     0.3570 h1         1 8BF       0.042200
     79 H44          9.2600    -1.2270     2.5190 ho         1 8BF       0.441500
@<TRIPOS>BOND
     1     1     2 1   
     2     1    36 1   
     3     2     3 ar  
     4     2     5 ar  
     5     3     4 ar  
     6     3    37 1   
     7     4     7 ar  
     8     4    38 1   
     9     5     6 ar  
    10     5    39 1   
    11     6     7 ar  
    12     6    40 1   
    13     7     8 1   
    14     8     9 1   
    15     8    10 1   
    16     8    41 1   
    17     9    42 1   
    18    10    11 1   
    19    10    43 1   
    20    10    44 1   
    21    11    12 1   
    22    11    45 1   
    23    11    46 1   
    24    12    13 1   
    25    12    47 1   
    26    12    48 1   
    27    13    14 1   
    28    13    15 1   
    29    13    49 1   
    30    14    50 1   
    31    14    51 1   
    32    14    52 1   
    33    15    16 1   
    34    15    21 1   
    35    15    53 1   
    36    16    17 1   
    37    16    18 1   
    38    16    23 1   
    39    17    54 1   
    40    17    55 1   
    41    17    56 1   
    42    18    19 1   
    43    18    57 1   
    44    18    58 1   
    45    19    20 1   
    46    19    59 1   
    47    19    60 1   
    48    20    24 1   
    49    20    61 1   
    50    20    62 1   
    51    21    22 1   
    52    21    63 1   
    53    21    64 1   
    54    22    23 1   
    55    22    65 1   
    56    22    66 1   
    57    23    24 1   
    58    23    67 1   
    59    24    25 2   
    60    25    26 1   
    61    25    68 1   
    62    26    27 2   
    63    26    69 1   
    64    27    28 1   
    65    27    29 1   
    66    28    34 1   
    67    28    70 1   
    68    28    71 1   
    69    29    30 1   
    70    29    72 1   
    71    29    73 1   
    72    30    31 1   
    73    30    32 1   
    74    30    74 1   
    75    31    75 1   
    76    32    33 2   
    77    32    34 1   
    78    33    76 1   
    79    33    77 1   
    80    34    35 1   
    81    34    78 1   
    82    35    79 1   
@<TRIPOS>SUBSTRUCTURE
     1 8BF         1 TEMP              0 ****  ****    0 ROOT
