@<TRIPOS>MOLECULE
8BF
   79    82     1     0     0
SMALL
bcc


@<TRIPOS>ATOM
      1 O35        -10.9260    -1.7680     2.3170 oh         1 8BF      -0.494100
      2 C26         -9.9130    -1.3790     1.5150 ca         1 8BF       0.141100
      3 C25         -9.8360    -0.0330     1.1670 ca         1 8BF      -0.192500
      4 C24         -8.8100     0.4080     0.3460 ca         1 8BF      -0.078000
      5 C27         -8.9540    -2.2650     1.0280 ca         1 8BF      -0.192500
      6 C28         -7.9340    -1.8040     0.2100 ca         1 8BF      -0.078000
      7 C23         -7.8400    -0.4610    -0.1430 ca         1 8BF      -0.148300
      8 C22         -6.7010     0.0570    -0.9930 c3         1 8BF       0.198400
      9 O34         -6.5010    -0.7170    -2.1590 oh         1 8BF      -0.586800
     10 C21         -5.4250     0.1950    -0.1640 c3         1 8BF      -0.111400
     11 C20         -4.2730     0.8680    -0.8990 c3         1 8BF      -0.073400
     12 C19         -3.0320     0.9870    -0.0200 c3         1 8BF      -0.077400
     13 C18         -1.7980     1.5740    -0.7200 c3         1 8BF      -0.047700
     14 C33         -2.0430     3.0330    -1.0970 c3         1 8BF      -0.086100
     15 C17         -0.5560     1.3820     0.1630 c5         1 8BF      -0.053700
     16 C13          0.8170     1.8730    -0.3570 c5         1 8BF      -0.034000
     17 C32          1.0410     1.4160    -1.8000 c3         1 8BF      -0.079100
     18 C12          1.1070     3.3690    -0.2060 c6         1 8BF      -0.062400
     19 C11          2.5800     3.6880    -0.4590 c6         1 8BF      -0.072400
     20 C10          3.5260     2.8490     0.4070 c6         1 8BF      -0.042200
     21 C16         -0.3030    -0.1130     0.5000 c5         1 8BF      -0.077400
     22 C15          1.2200    -0.3020     0.6350 c5         1 8BF      -0.071400
     23 C14          1.7610     1.1190     0.6140 c5         1 8BF      -0.035500
     24 C9           3.2080     1.3800     0.3360 c2         1 8BF      -0.079400
     25 C8           4.0930     0.4020     0.0850 ce         1 8BF      -0.139000
     26 C7           5.5060     0.5730    -0.1980 ce         1 8BF      -0.111000
     27 C6           6.4080    -0.4010    -0.3990 c2         1 8BF      -0.106400
     28 C1           7.8450    -0.0800    -0.6920 c6         1 8BF      -0.032200
     29 C5           6.1260    -1.8750    -0.3370 c6         1 8BF      -0.032200
     30 C4           7.0360    -2.5530     0.6950 c6         1 8BF       0.188800
     31 O30          6.7560    -3.9290     0.6810 oh         1 8BF      -0.591300
     32 C3           8.4750    -2.2200     0.3830 c2         1 8BF      -0.199400
     33 C31          9.4080    -3.1310     0.1280 c2         1 8BF      -0.198000
     34 C2           8.7740    -0.7420     0.3240 c6         1 8BF       0.188800
     35 O29          8.5510    -0.1170     1.5730 oh         1 8BF      -0.591300
     36 H1         -10.8630    -2.7110     2.5030 ho         1 8BF       0.425000
     37 H2         -10.5800     0.6620     1.5350 ha         1 8BF       0.138500
     38 H3          -8.7670     1.4590     0.0810 ha         1 8BF       0.128000
     39 H4          -9.0020    -3.3170     1.2870 ha         1 8BF       0.138500
     40 H5          -7.2020    -2.5190    -0.1480 ha         1 8BF       0.128000
     41 H6          -6.9780     1.0540    -1.3510 h1         1 8BF       0.073700
     42 H7          -6.0180    -1.5160    -1.9230 ho         1 8BF       0.398000
     43 H8          -5.6670     0.7700     0.7350 hc         1 8BF       0.045700
     44 H9          -5.1160    -0.7960     0.1940 hc         1 8BF       0.045700
     45 H10         -4.0170     0.3010    -1.8000 hc         1 8BF       0.044700
     46 H11         -4.6060     1.8530    -1.2410 hc         1 8BF       0.044700
     47 H12         -3.2650     1.5900     0.8660 hc         1 8BF       0.037700
     48 H13         -2.7970    -0.0130     0.3540 hc         1 8BF       0.037700
     49 H14         -1.6470     1.0010    -1.6460 hc         1 8BF       0.047700
     50 H15         -1.2790     3.4180    -1.7700 hc         1 8BF       0.033033
     51 H16         -3.0000     3.1580    -1.6030 hc         1 8BF       0.033033
     52 H17         -2.0530     3.6680    -0.2080 hc         1 8BF       0.033033
     53 H18         -0.7480     1.9180     1.1040 hc         1 8BF       0.043700
     54 H19          0.4570     2.0190    -2.4980 hc         1 8BF       0.034367
     55 H20          2.0870     1.4960    -2.0980 hc         1 8BF       0.034367
     56 H21          0.7440     0.3770    -1.9520 hc         1 8BF       0.034367
     57 H22          0.4950     3.9680    -0.8810 hc         1 8BF       0.040200
     58 H23          0.8410     3.6780     0.8120 hc         1 8BF       0.040200
     59 H24          2.8200     3.5310    -1.5140 hc         1 8BF       0.040200
     60 H25          2.7620     4.7470    -0.2630 hc         1 8BF       0.040200
     61 H26          4.5590     3.0650     0.1350 hc         1 8BF       0.046700
     62 H27          3.4100     3.1660     1.4510 hc         1 8BF       0.046700
     63 H28         -0.8210    -0.4010     1.4150 hc         1 8BF       0.040200
     64 H29         -0.7000    -0.7510    -0.2920 hc         1 8BF       0.040200
     65 H30          1.5010    -0.8330     1.5460 hc         1 8BF       0.044700
     66 H31          1.6090    -0.8870    -0.2010 hc         1 8BF       0.044700
     67 H32          1.5580     1.5530     1.6060 hc         1 8BF       0.052700
     68 H33          3.7220    -0.6170     0.0980 ha         1 8BF       0.122000
     69 H34          5.8750     1.5910    -0.2650 ha         1 8BF       0.120000
     70 H35          8.1160    -0.4640    -1.6810 hc         1 8BF       0.058450
     71 H36          8.0160     0.9990    -0.7090 hc         1 8BF       0.058450
     72 H37          5.0860    -2.0890    -0.0900 hc         1 8BF       0.058450
     73 H38          6.3300    -2.3220    -1.3170 hc         1 8BF       0.058450
     74 H39          6.7940    -2.1220     1.6770 h1         1 8BF       0.042200
     75 H40          7.2010    -4.3380     1.4300 ho         1 8BF       0.402500
     76 H41         10.4240    -2.8370    -0.1030 ha         1 8BF       0.117000
     77 H42          9.2050    -4.1940     0.1310 ha         1 8BF       0.117000
     78 H43          9.8120    -0.6010    -0.0030 h1         1 8BF       0.042200
     79 H44          9.1420    -0.5220     2.2170 ho         1 8BF       0.402500
@<TRIPOS>BOND
     1     1     2 1   
     2     1    36 1   
     3     2     3 ar  
     4     2     5 ar  
     5     3     4 ar  
     6     3    37 1   
     7     4     7 ar  
     8     4    38 1   
     9     5     6 ar  
    10     5    39 1   
    11     6     7 ar  
    12     6    40 1   
    13     7     8 1   
    14     8     9 1   
    15     8    10 1   
    16     8    41 1   
    17     9    42 1   
    18    10    11 1   
    19    10    43 1   
    20    10    44 1   
    21    11    12 1   
    22    11    45 1   
    23    11    46 1   
    24    12    13 1   
    25    12    47 1   
    26    12    48 1   
    27    13    14 1   
    28    13    15 1   
    29    13    49 1   
    30    14    50 1   
    31    14    51 1   
    32    14    52 1   
    33    15    16 1   
    34    15    21 1   
    35    15    53 1   
    36    16    17 1   
    37    16    18 1   
    38    16    23 1   
    39    17    54 1   
    40    17    55 1   
    41    17    56 1   
    42    18    19 1   
    43    18    57 1   
    44    18    58 1   
    45    19    20 1   
    46    19    59 1   
    47    19    60 1   
    48    20    24 1   
    49    20    61 1   
    50    20    62 1   
    51    21    22 1   
    52    21    63 1   
    53    21    64 1   
    54    22    23 1   
    55    22    65 1   
    56    22    66 1   
    57    23    24 1   
    58    23    67 1   
    59    24    25 2   
    60    25    26 1   
    61    25    68 1   
    62    26    27 2   
    63    26    69 1   
    64    27    28 1   
    65    27    29 1   
    66    28    34 1   
    67    28    70 1   
    68    28    71 1   
    69    29    30 1   
    70    29    72 1   
    71    29    73 1   
    72    30    31 1   
    73    30    32 1   
    74    30    74 1   
    75    31    75 1   
    76    32    33 2   
    77    32    34 1   
    78    33    76 1   
    79    33    77 1   
    80    34    35 1   
    81    34    78 1   
    82    35    79 1   
@<TRIPOS>SUBSTRUCTURE
     1 8BF         1 TEMP              0 ****  ****    0 ROOT
