@<TRIPOS>MOLECULE
8BG
   79    83     1     0     0
SMALL
No Charge or Current Charge


@<TRIPOS>ATOM
      1 C15         15.2720     9.2960    16.9130 ca         1 8BG       0.032000
      2 C17         15.1180     6.8770    17.0930 ca         1 8BG       0.361000
      3 C20         15.0720    15.5670    20.5400 ca         1 8BG      -0.080300
      4 C21         14.9230    16.9460    20.7900 ca         1 8BG      -0.102000
      5 C22         14.0750    17.3930    21.8190 ca         1 8BG      -0.118000
      6 C24         13.5210    15.0880    22.3640 ca         1 8BG      -0.118000
      7 C28         16.7170    13.3300    16.5970 cx         1 8BG      -0.122900
      8 N01         17.9130    14.9940    20.9550 ns         1 8BG      -0.497900
      9 C02         17.1940    14.2470    19.9140 c3         1 8BG       0.143700
     10 C03         18.1900    13.7900    18.7980 c3         1 8BG       0.183300
     11 C04         17.6200    12.8190    17.7080 cx         1 8BG       0.152200
     12 C05         15.9820    15.0790    19.4140 c3         1 8BG      -0.038100
     13 N06         17.4280    11.4460    18.1860 n3         1 8BG      -0.748500
     14 C07         18.5010    10.4250    18.0130 c3         1 8BG       0.221800
     15 C08         19.8560    10.7080    18.7160 c3         1 8BG      -0.066700
     16 C09         19.7400    10.6980    20.2610 c3         1 8BG      -0.091600
     17 S10         15.9990    10.9700    19.0030 sy         1 8BG       1.214600
     18 C11         15.6490     9.3680    18.2670 ca         1 8BG      -0.370500
     19 O12         16.3270    10.8310    20.4240 o          1 8BG      -0.547000
     20 O13         14.9340    11.8660    18.5470 o          1 8BG      -0.547000
     21 C14         20.9350     9.7030    18.2510 c3         1 8BG      -0.091600
     22 C16         15.0080     8.0450    16.3310 ca         1 8BG      -0.210000
     23 C18         15.4950     6.9480    18.4390 ca         1 8BG      -0.210000
     24 C19         15.7620     8.1920    19.0340 ca         1 8BG       0.032000
     25 C23         13.3750    16.4640    22.6070 ca         1 8BG      -0.117000
     26 C25         14.3640    14.6410    21.3320 ca         1 8BG      -0.102000
     27 N26         14.8580     5.6640    16.5220 nv         1 8BG      -1.090000
     28 O27         18.8290    14.9560    18.2270 oh         1 8BG      -0.666000
     29 C29         18.1200    12.9070    16.2700 cx         1 8BG      -0.122900
     30 O31         18.7040    15.6040    22.9270 os         1 8BG      -0.460100
     31 O32         17.5300    13.6180    22.7510 o          1 8BG      -0.543000
     32 C33         18.8510    15.3980    24.3630 c5         1 8BG       0.160300
     33 C34         20.1120    16.1880    24.8060 c5         1 8BG       0.152600
     34 O35         19.6360    17.5360    24.9680 os         1 8BG      -0.468000
     35 C36         18.3790    17.4560    25.6620 c5         1 8BG       0.367300
     36 C37         17.7190    16.1080    25.2150 c5         1 8BG      -0.140700
     37 O38         17.5270    18.5000    25.1530 os         1 8BG      -0.448000
     38 C39         16.9220    18.0010    23.9460 c5         1 8BG       0.150600
     39 C40         16.4790    16.5850    24.3750 c5         1 8BG      -0.094400
     40 H1          15.1890    10.2000    16.3120 ha         1 8BG       0.130000
     41 H2          15.4610    17.6740    20.1870 ha         1 8BG       0.123500
     42 H3          13.9620    18.4580    22.0060 ha         1 8BG       0.110500
     43 H4          12.9790    14.3680    22.9730 ha         1 8BG       0.110500
     44 H5          16.5000    14.3940    16.5560 hc         1 8BG       0.082950
     45 H6          15.9130    12.6920    16.2410 hc         1 8BG       0.082950
     46 H7          18.3820    15.8510    20.6960 hn         1 8BG       0.332500
     47 H8          16.7940    13.3410    20.3820 h1         1 8BG       0.098700
     48 H9          18.9640    13.2310    19.3320 h1         1 8BG       0.056700
     49 H10         16.3510    15.9310    18.8310 hc         1 8BG       0.066700
     50 H11         15.3860    14.4770    18.7220 hc         1 8BG       0.066700
     51 H12         18.1650     9.4440    18.3730 h1         1 8BG       0.049700
     52 H13         18.6950    10.2850    16.9430 h1         1 8BG       0.049700
     53 H14         20.2050    11.6980    18.4010 hc         1 8BG       0.042700
     54 H15         20.7060    10.9380    20.7230 hc         1 8BG       0.040200
     55 H16         19.0100    11.4330    20.6150 hc         1 8BG       0.040200
     56 H17         19.4250     9.7110    20.6200 hc         1 8BG       0.040200
     57 H18         21.9030     9.9310    18.7130 hc         1 8BG       0.040200
     58 H19         20.6580     8.6770    18.5230 hc         1 8BG       0.040200
     59 H20         21.0630     9.7470    17.1620 hc         1 8BG       0.040200
     60 H21         14.7190     7.9910    15.2850 ha         1 8BG       0.117500
     61 H22         15.5840     6.0410    19.0300 ha         1 8BG       0.117500
     62 H23         16.0570     8.2340    20.0810 ha         1 8BG       0.130000
     63 H24         12.7210    16.8100    23.4050 ha         1 8BG       0.109000
     64 H25         14.4670    13.5740    21.1480 ha         1 8BG       0.123500
     65 H26         14.7590     4.8450    17.1180 hn         1 8BG       0.470000
     66 H27         14.4110     5.6280    15.6080 hn         1 8BG       0.470000
     67 H28         19.6220    14.6400    17.7440 ho         1 8BG       0.444000
     68 H29         18.2190    12.0000    15.6800 hc         1 8BG       0.082950
     69 H30         18.8220    13.6870    15.9910 hc         1 8BG       0.082950
     70 H31         18.9670    14.3300    24.5960 h1         1 8BG       0.087700
     71 H32         20.4980    15.8230    25.7670 h1         1 8BG       0.061200
     72 H33         20.9200    16.1570    24.0640 h1         1 8BG       0.061200
     73 H34         18.5180    17.5290    26.7490 h2         1 8BG       0.080700
     74 H35         17.4260    15.4980    26.0770 hc         1 8BG       0.076700
     75 H36         16.0820    18.6430    23.6480 h1         1 8BG       0.057200
     76 H37         17.6650    17.9850    23.1370 h1         1 8BG       0.057200
     77 H38         15.5880    16.6520    25.0100 hc         1 8BG       0.067200
     78 H39         16.2010    15.9420    23.5370 hc         1 8BG       0.067200
     79 C30         18.0030    14.6340    22.2660 c          1 8BG       0.633100
@<TRIPOS>BOND
     1     1    18 ar  
     2     1    22 ar  
     3     1    40 1   
     4     2    22 ar  
     5     2    23 ar  
     6     2    27 1   
     7     3     4 ar  
     8     3    12 1   
     9     3    26 ar  
    10     4     5 ar  
    11     4    41 1   
    12     5    25 ar  
    13     5    42 1   
    14     6    25 ar  
    15     6    26 ar  
    16     6    43 1   
    17     7    11 1   
    18     7    29 1   
    19     7    44 1   
    20     7    45 1   
    21     8     9 1   
    22     8    46 1   
    23     8    79 1   
    24     9    10 1   
    25     9    12 1   
    26     9    47 1   
    27    10    11 1   
    28    10    28 1   
    29    10    48 1   
    30    11    13 1   
    31    11    29 1   
    32    12    49 1   
    33    12    50 1   
    34    13    14 1   
    35    13    17 1   
    36    14    15 1   
    37    14    51 1   
    38    14    52 1   
    39    15    16 1   
    40    15    21 1   
    41    15    53 1   
    42    16    54 1   
    43    16    55 1   
    44    16    56 1   
    45    17    18 1   
    46    17    19 2   
    47    17    20 2   
    48    18    24 ar  
    49    21    57 1   
    50    21    58 1   
    51    21    59 1   
    52    22    60 1   
    53    23    24 ar  
    54    23    61 1   
    55    24    62 1   
    56    25    63 1   
    57    26    64 1   
    58    27    65 1   
    59    27    66 1   
    60    28    67 1   
    61    29    68 1   
    62    29    69 1   
    63    30    32 1   
    64    30    79 1   
    65    31    79 2   
    66    32    33 1   
    67    32    36 1   
    68    32    70 1   
    69    33    34 1   
    70    33    71 1   
    71    33    72 1   
    72    34    35 1   
    73    35    36 1   
    74    35    37 1   
    75    35    73 1   
    76    36    39 1   
    77    36    74 1   
    78    37    38 1   
    79    38    39 1   
    80    38    75 1   
    81    38    76 1   
    82    39    77 1   
    83    39    78 1   
@<TRIPOS>SUBSTRUCTURE
     1 8BG         1 TEMP              0 ****  ****    0 ROOT
