@<TRIPOS>MOLECULE
8BG
   79    83     1     0     0
SMALL
abcg2


@<TRIPOS>ATOM
      1 C15         14.5130     9.8010    17.4350 ca         1 8BG       0.032000
      2 C17         14.5690     7.6700    16.2830 ca         1 8BG       0.361000
      3 C20         15.0740    15.2550    20.4620 ca         1 8BG      -0.080300
      4 C21         14.8530    16.6240    20.6090 ca         1 8BG      -0.102000
      5 C22         14.0010    17.1130    21.5950 ca         1 8BG      -0.118000
      6 C24         13.5800    14.8640    22.3310 ca         1 8BG      -0.118000
      7 C28         16.7600    12.5280    16.9100 cx         1 8BG      -0.122900
      8 N01         17.9580    14.9450    20.8250 ns         1 8BG      -0.497900
      9 C02         17.2440    14.0490    19.9300 c3         1 8BG       0.143700
     10 C03         18.2050    13.5630    18.8360 c3         1 8BG       0.183300
     11 C04         17.7190    12.3340    18.0520 cx         1 8BG       0.152200
     12 C05         15.9830    14.7330    19.3800 c3         1 8BG      -0.038100
     13 N06         17.6770    11.1290    18.8710 n3         1 8BG      -0.748500
     14 C07         18.8270    10.2060    18.8210 c3         1 8BG       0.221800
     15 C08         20.1230    10.7840    19.3910 c3         1 8BG      -0.066700
     16 C09         19.9910    11.1110    20.8770 c3         1 8BG      -0.091600
     17 S10         16.2520    10.5160    19.4300 sy         1 8BG       1.214600
     18 C11         15.5940     9.4110    18.2260 ca         1 8BG      -0.370500
     19 O12         16.5770     9.7310    20.6030 o          1 8BG      -0.547000
     20 O13         15.3320    11.6200    19.5650 o          1 8BG      -0.547000
     21 C14         21.2560     9.7870    19.1420 c3         1 8BG      -0.091600
     22 C16         14.0060     8.9430    16.4780 ca         1 8BG      -0.210000
     23 C18         15.6530     7.2860    17.0950 ca         1 8BG      -0.210000
     24 C19         16.1550     8.1430    18.0540 ca         1 8BG       0.032000
     25 C23         13.3610    16.2330    22.4600 ca         1 8BG      -0.117000
     26 C25         14.4280    14.3810    21.3410 ca         1 8BG      -0.102000
     27 N26         14.1000     6.8370    15.3000 nv         1 8BG      -1.090000
     28 O27         18.4720    14.6750    17.9810 oh         1 8BG      -0.666000
     29 C29         18.1840    12.1720    16.6240 cx         1 8BG      -0.122900
     30 O31         18.7760    15.7240    22.7330 os         1 8BG      -0.460100
     31 O32         17.8160    13.6610    22.7110 o          1 8BG      -0.543000
     32 C33         18.9680    15.6420    24.1590 c5         1 8BG       0.160300
     33 C34         20.1680    16.5020    24.5070 c5         1 8BG       0.152600
     34 O35         19.6580    17.8310    24.6360 os         1 8BG      -0.468000
     35 C36         18.3650    17.7470    25.2410 c5         1 8BG       0.367300
     36 C37         17.8270    16.3220    24.9430 c5         1 8BG      -0.140700
     37 O38         17.4890    18.6720    24.6600 os         1 8BG      -0.448000
     38 C39         16.7200    17.9970    23.6400 c5         1 8BG       0.150600
     39 C40         16.5160    16.5920    24.1930 c5         1 8BG      -0.094400
     40 H1          14.0620    10.7720    17.5810 ha         1 8BG       0.130000
     41 H2          15.3530    17.3160    19.9390 ha         1 8BG       0.123500
     42 H3          13.8440    18.1800    21.6900 ha         1 8BG       0.110500
     43 H4          13.0890    14.1710    23.0030 ha         1 8BG       0.110500
     44 H5          16.4450    13.5440    16.7210 hc         1 8BG       0.082950
     45 H6          16.0050    11.7790    16.7350 hc         1 8BG       0.082950
     46 H7          18.2540    15.8440    20.4770 hn         1 8BG       0.332500
     47 H8          16.9530    13.1930    20.5290 h1         1 8BG       0.098700
     48 H9          19.1270    13.2810    19.3440 h1         1 8BG       0.056700
     49 H10         16.2790    15.5530    18.7260 hc         1 8BG       0.066700
     50 H11         15.4500    14.0030    18.7730 hc         1 8BG       0.066700
     51 H12         18.5670     9.3230    19.4000 h1         1 8BG       0.049700
     52 H13         18.9900     9.8860    17.7900 h1         1 8BG       0.049700
     53 H14         20.3640    11.6990    18.8430 hc         1 8BG       0.042700
     54 H15         20.9000    11.5870    21.2500 hc         1 8BG       0.040200
     55 H16         19.1530    11.7800    21.0730 hc         1 8BG       0.040200
     56 H17         19.8270    10.1960    21.4530 hc         1 8BG       0.040200
     57 H18         22.2020    10.1780    19.5200 hc         1 8BG       0.040200
     58 H19         21.0550     8.8390    19.6510 hc         1 8BG       0.040200
     59 H20         21.3750     9.5800    18.0760 hc         1 8BG       0.040200
     60 H21         13.1600     9.2480    15.8730 ha         1 8BG       0.117500
     61 H22         16.0880     6.3020    16.9680 ha         1 8BG       0.117500
     62 H23         16.9740     7.8160    18.6800 ha         1 8BG       0.130000
     63 H24         12.7020    16.6100    23.2330 ha         1 8BG       0.109000
     64 H25         14.5910    13.3150    21.2410 ha         1 8BG       0.123500
     65 H26         14.3310     5.8580    15.3700 hn         1 8BG       0.470000
     66 H27         13.1780     7.0210    14.9360 hn         1 8BG       0.470000
     67 H28         19.3600    14.5790    17.6190 ho         1 8BG       0.444000
     68 H29         18.3860    11.1660    16.2850 hc         1 8BG       0.082950
     69 H30         18.8360    12.9280    16.2140 hc         1 8BG       0.082950
     70 H31         19.0980    14.6000    24.4330 h1         1 8BG       0.087700
     71 H32         20.6030    16.1630    25.4540 h1         1 8BG       0.061200
     72 H33         20.9340    16.4960    23.7340 h1         1 8BG       0.061200
     73 H34         18.4520    17.9940    26.3010 h2         1 8BG       0.080700
     74 H35         17.6600    15.7680    25.8640 hc         1 8BG       0.076700
     75 H36         15.7990    18.5580    23.5020 h1         1 8BG       0.057200
     76 H37         17.2770    17.9810    22.6990 h1         1 8BG       0.057200
     77 H38         15.6860    16.5910    24.9000 hc         1 8BG       0.067200
     78 H39         16.2910    15.8640    23.4180 hc         1 8BG       0.067200
     79 C30         18.1470    14.6830    22.1290 c          1 8BG       0.633100
@<TRIPOS>BOND
     1     1    18 ar  
     2     1    22 ar  
     3     1    40 1   
     4     2    22 ar  
     5     2    23 ar  
     6     2    27 1   
     7     3     4 ar  
     8     3    12 1   
     9     3    26 ar  
    10     4     5 ar  
    11     4    41 1   
    12     5    25 ar  
    13     5    42 1   
    14     6    25 ar  
    15     6    26 ar  
    16     6    43 1   
    17     7    11 1   
    18     7    29 1   
    19     7    44 1   
    20     7    45 1   
    21     8     9 1   
    22     8    46 1   
    23     8    79 1   
    24     9    10 1   
    25     9    12 1   
    26     9    47 1   
    27    10    11 1   
    28    10    28 1   
    29    10    48 1   
    30    11    13 1   
    31    11    29 1   
    32    12    49 1   
    33    12    50 1   
    34    13    14 1   
    35    13    17 1   
    36    14    15 1   
    37    14    51 1   
    38    14    52 1   
    39    15    16 1   
    40    15    21 1   
    41    15    53 1   
    42    16    54 1   
    43    16    55 1   
    44    16    56 1   
    45    17    18 1   
    46    17    19 2   
    47    17    20 2   
    48    18    24 ar  
    49    21    57 1   
    50    21    58 1   
    51    21    59 1   
    52    22    60 1   
    53    23    24 ar  
    54    23    61 1   
    55    24    62 1   
    56    25    63 1   
    57    26    64 1   
    58    27    65 1   
    59    27    66 1   
    60    28    67 1   
    61    29    68 1   
    62    29    69 1   
    63    30    32 1   
    64    30    79 1   
    65    31    79 2   
    66    32    33 1   
    67    32    36 1   
    68    32    70 1   
    69    33    34 1   
    70    33    71 1   
    71    33    72 1   
    72    34    35 1   
    73    35    36 1   
    74    35    37 1   
    75    35    73 1   
    76    36    39 1   
    77    36    74 1   
    78    37    38 1   
    79    38    39 1   
    80    38    75 1   
    81    38    76 1   
    82    39    77 1   
    83    39    78 1   
@<TRIPOS>SUBSTRUCTURE
     1 8BG         1 TEMP              0 ****  ****    0 ROOT
