@<TRIPOS>MOLECULE
8BH
   31    33     1     0     0
SMALL
abcg2


@<TRIPOS>ATOM
      1 C01         13.6210     8.9400    -8.2570 ca         1 8BH      -0.070800
      2 C02         13.9250     9.2070    -6.9030 ca         1 8BH      -0.060200
      3 C03         13.3950    10.0130    -9.1250 ca         1 8BH      -0.067000
      4 C04         14.0080    10.4990    -6.3920 ca         1 8BH      -0.118000
      5 C05         13.4760    11.3030    -8.6240 ca         1 8BH      -0.126000
      6 C06         13.7790    11.5450    -7.2730 ca         1 8BH      -0.095000
      7 C07         13.6190     7.4960    -8.4150 cc         1 8BH      -0.159200
      8 C08         13.9210     6.9750    -7.1580 cd         1 8BH      -0.088100
      9 C10         13.3490     6.8390    -9.6500 ce         1 8BH      -0.014000
     10 C11         13.3020     5.5120    -9.9630 cf         1 8BH      -0.122500
     11 C12         13.5570     4.5200    -8.9780 ch         1 8BH       0.312700
     12 C14         12.9950     5.0070   -11.2990 cd         1 8BH       0.408800
     13 C15         12.5660     5.7180   -12.4700 cd         1 8BH      -0.237000
     14 C17         12.4170     4.7290   -13.4600 cc         1 8BH       0.308000
     15 C19         12.3020     7.0780   -12.6640 ch         1 8BH       0.375000
     16 N09         14.0990     7.9870    -6.2770 na         1 8BH      -0.213700
     17 N13         13.7620     3.7280    -8.1620 n1         1 8BH      -0.485000
     18 N16         13.0950     3.7130   -11.5560 nc         1 8BH      -0.510800
     19 N18         12.7450     3.5690   -12.8680 na         1 8BH      -0.053200
     20 N20         12.0790     8.1990   -12.8500 n1         1 8BH      -0.496000
     21 N21         11.9760     4.8290   -14.7340 nv         1 8BH      -1.085000
     22 H1          13.1610     9.8450   -10.1690 ha         1 8BH       0.126000
     23 H2          14.2420    10.6770    -5.3510 ha         1 8BH       0.116000
     24 H3          13.3030    12.1430    -9.2850 ha         1 8BH       0.116000
     25 H4          13.8340    12.5650    -6.9150 ha         1 8BH       0.114000
     26 H5          14.0210     5.9540    -6.8370 h4         1 8BH       0.232000
     27 H6          13.1510     7.5190   -10.4680 ha         1 8BH       0.190000
     28 H7          14.3260     7.8620    -5.3020 hn         1 8BH       0.355000
     29 H9          11.9970     5.7420   -15.1620 hn         1 8BH       0.485500
     30 H10         12.1750     4.0640   -15.3610 hn         1 8BH       0.485500
     31 H8          12.7440     2.6530   -13.2900 hn         1 8BH       0.377000
@<TRIPOS>BOND
     1     1     2 ar  
     2     1     3 ar  
     3     1     7 1   
     4     2     4 ar  
     5     2    16 1   
     6     3     5 ar  
     7     3    22 1   
     8     4     6 ar  
     9     4    23 1   
    10     5     6 ar  
    11     5    24 1   
    12     6    25 1   
    13     7     8 2   
    14     7     9 1   
    15     8    16 1   
    16     8    26 1   
    17     9    10 2   
    18     9    27 1   
    19    10    11 1   
    20    10    12 1   
    21    11    17 3   
    22    12    13 1   
    23    12    18 2   
    24    13    14 2   
    25    13    15 1   
    26    14    19 1   
    27    14    21 1   
    28    15    20 3   
    29    16    28 1   
    30    18    19 1   
    31    19    31 1   
    32    21    29 1   
    33    21    30 1   
@<TRIPOS>SUBSTRUCTURE
     1 8BH         1 TEMP              0 ****  ****    0 ROOT
