@<TRIPOS>MOLECULE
8BH
   31    33     1     0     0
SMALL
No Charge or Current Charge


@<TRIPOS>ATOM
      1 C01         13.7730     8.9020    -8.2420 ca         1 8BH      -0.070800
      2 C02         14.0450     9.1600    -6.9280 ca         1 8BH      -0.060200
      3 C03         13.4350     9.9250    -9.1410 ca         1 8BH      -0.067000
      4 C04         14.0060    10.4630    -6.4130 ca         1 8BH      -0.118000
      5 C05         13.3880    11.2480    -8.6510 ca         1 8BH      -0.126000
      6 C06         13.6730    11.5160    -7.2910 ca         1 8BH      -0.095000
      7 C07         13.8920     7.4860    -8.4530 cc         1 8BH      -0.159200
      8 C08         14.2450     6.9540    -7.2120 cd         1 8BH      -0.088100
      9 C10         13.7000     6.7910    -9.7270 ce         1 8BH      -0.014000
     10 C11         13.1210     5.5740    -9.9600 cf         1 8BH      -0.122500
     11 C12         12.6470     4.7680    -8.8790 ch         1 8BH       0.312700
     12 C14         12.9770     5.0180   -11.3070 cd         1 8BH       0.408800
     13 C15         12.4060     5.6540   -12.4370 cd         1 8BH      -0.237000
     14 C17         12.4940     4.7660   -13.4600 cc         1 8BH       0.308000
     15 C19         11.8380     6.9470   -12.4980 ch         1 8BH       0.375000
     16 N09         14.3400     7.9920    -6.2530 na         1 8BH      -0.213700
     17 N13         12.2340     4.1400    -7.9850 n1         1 8BH      -0.485000
     18 N16         13.4080     3.7920   -11.5730 nc         1 8BH      -0.510800
     19 N18         13.1010     3.6470   -12.9170 na         1 8BH      -0.053200
     20 N20         11.3910     8.0250   -12.5260 n1         1 8BH      -0.496000
     21 N21         12.0980     4.8430   -14.7640 nv         1 8BH      -1.085000
     22 H1          13.2120     9.7090   -10.1830 ha         1 8BH       0.126000
     23 H2          14.2240    10.6590    -5.3650 ha         1 8BH       0.116000
     24 H3          13.1290    12.0640    -9.3220 ha         1 8BH       0.116000
     25 H4          13.6340    12.5380    -6.9210 ha         1 8BH       0.114000
     26 H5          14.4440     5.9190    -6.9430 h4         1 8BH       0.232000
     27 H6          14.0230     7.3710   -10.5930 ha         1 8BH       0.190000
     28 H7          14.5820     7.8960    -5.2710 hn         1 8BH       0.355000
     29 H9          11.7830     5.7360   -15.1440 hn         1 8BH       0.485500
     30 H10         12.3910     4.1350   -15.4390 hn         1 8BH       0.485500
     31 H8          13.3100     2.7910   -13.4210 hn         1 8BH       0.377000
@<TRIPOS>BOND
     1     1     2 ar  
     2     1     3 ar  
     3     1     7 1   
     4     2     4 ar  
     5     2    16 1   
     6     3     5 ar  
     7     3    22 1   
     8     4     6 ar  
     9     4    23 1   
    10     5     6 ar  
    11     5    24 1   
    12     6    25 1   
    13     7     8 2   
    14     7     9 1   
    15     8    16 1   
    16     8    26 1   
    17     9    10 2   
    18     9    27 1   
    19    10    11 1   
    20    10    12 1   
    21    11    17 3   
    22    12    13 1   
    23    12    18 2   
    24    13    14 2   
    25    13    15 1   
    26    14    19 1   
    27    14    21 1   
    28    15    20 3   
    29    16    28 1   
    30    18    19 1   
    31    19    31 1   
    32    21    29 1   
    33    21    30 1   
@<TRIPOS>SUBSTRUCTURE
     1 8BH         1 TEMP              0 ****  ****    0 ROOT
