@<TRIPOS>MOLECULE
8BI
   36    37     1     0     0
SMALL
bcc


@<TRIPOS>ATOM
      1 C10          0.0640     4.9310   -11.6310 c3         1 8BI       0.136500
      2 C13          0.8430     1.4560   -12.5070 cc         1 8BI      -0.150300
      3 C02         -1.6350     5.2240    -8.2650 c5         1 8BI      -0.076700
      4 C03         -1.0520     4.6940    -6.9620 c5         1 8BI      -0.069400
      5 C04         -0.4460     3.3200    -7.3100 c5         1 8BI      -0.052000
      6 C05         -1.4740     2.2140    -7.0750 c3         1 8BI      -0.078600
      7 C06          0.8000     3.0360    -6.4770 c3         1 8BI      -0.078600
      8 C07         -0.1170     3.4330    -8.8250 c5         1 8BI      -0.069400
      9 C08         -0.5470     4.8390    -9.2710 c5         1 8BI       0.172500
     10 N09         -1.0050     4.9140   -10.6470 n7         1 8BI      -0.804200
     11 C11          0.6000     3.5680   -11.9310 cd         1 8BI       0.318600
     12 C12         -0.1140     2.4310   -12.3620 cd         1 8BI      -0.287300
     13 N14          2.0140     2.0240   -12.1750 na         1 8BI      -0.008600
     14 N15          1.8900     3.3000   -11.8230 nc         1 8BI      -0.530800
     15 H1           0.9040     5.5760   -11.3350 h1         1 8BI       0.042200
     16 H2          -0.3450     5.3560   -12.5520 h1         1 8BI       0.042200
     17 H3           0.7760     0.4240   -12.8140 h4         1 8BI       0.169000
     18 H7          -2.5400     4.6550    -8.5160 hc         1 8BI       0.062700
     19 H8          -0.2630     5.3760    -6.6270 hc         1 8BI       0.042200
     20 H9          -1.7850     4.6360    -6.1540 hc         1 8BI       0.042200
     21 H10         -1.7280     2.1300    -6.0160 hc         1 8BI       0.031867
     22 H11         -2.3980     2.4010    -7.6250 hc         1 8BI       0.031867
     23 H12         -1.0890     1.2460    -7.4020 hc         1 8BI       0.031867
     24 H13          0.5700     3.0380    -5.4090 hc         1 8BI       0.031867
     25 H14          1.2260     2.0600    -6.7220 hc         1 8BI       0.031867
     26 H15          1.5720     3.7880    -6.6520 hc         1 8BI       0.031867
     27 H16         -0.6760     2.6910    -9.3990 hc         1 8BI       0.055700
     28 H17          0.9410     3.2510    -9.0240 hc         1 8BI       0.055700
     29 H18          0.3020     5.5290    -9.1060 h1         1 8BI       0.020700
     30 H19         -1.5380     5.7680   -10.7610 hn         1 8BI       0.357800
     31 H21         -1.1730     2.3420   -12.5360 ha         1 8BI       0.168000
     32 H22          2.9220     1.5870   -12.1690 hn         1 8BI       0.317700
     33 C01         -1.9750     6.7050    -8.2320 c3         1 8BI      -0.085100
     34 H4          -2.7090     6.9220    -7.4540 hc         1 8BI       0.032033
     35 H5          -1.0830     7.3000    -8.0230 hc         1 8BI       0.032033
     36 H6          -2.3970     7.0570    -9.1750 hc         1 8BI       0.032033
@<TRIPOS>BOND
     1     1    10 1   
     2     1    11 1   
     3     1    15 1   
     4     1    16 1   
     5     2    12 2   
     6     2    13 1   
     7     2    17 1   
     8     3     4 1   
     9     3     9 1   
    10     3    18 1   
    11     3    33 1   
    12     4     5 1   
    13     4    19 1   
    14     4    20 1   
    15     5     6 1   
    16     5     7 1   
    17     5     8 1   
    18     6    21 1   
    19     6    22 1   
    20     6    23 1   
    21     7    24 1   
    22     7    25 1   
    23     7    26 1   
    24     8     9 1   
    25     8    27 1   
    26     8    28 1   
    27     9    10 1   
    28     9    29 1   
    29    10    30 1   
    30    11    12 1   
    31    11    14 2   
    32    12    31 1   
    33    13    14 1   
    34    13    32 1   
    35    33    34 1   
    36    33    35 1   
    37    33    36 1   
@<TRIPOS>SUBSTRUCTURE
     1 8BI         1 TEMP              0 ****  ****    0 ROOT
