@<TRIPOS>MOLECULE
8BI
   36    37     1     0     0
SMALL
No Charge or Current Charge


@<TRIPOS>ATOM
      1 C10         -0.0860     4.9510   -11.7620 c3         1 8BI       0.136500
      2 C13          1.0750     1.4590   -12.3320 cc         1 8BI      -0.183000
      3 C02         -1.6040     5.2520    -8.2510 c5         1 8BI      -0.076700
      4 C03         -0.9130     4.7350    -6.9640 c5         1 8BI      -0.069400
      5 C04         -0.5130     3.2660    -7.3410 c5         1 8BI      -0.052000
      6 C05         -1.6320     2.2520    -6.9750 c3         1 8BI      -0.078600
      7 C06          0.7760     2.8290    -6.5980 c3         1 8BI      -0.078600
      8 C07         -0.3040     3.3430    -8.9040 c5         1 8BI      -0.069400
      9 C08         -0.5080     4.8460    -9.2680 c5         1 8BI       0.172500
     10 N09         -1.0690     4.9750   -10.6400 n7         1 8BI      -0.859400
     11 C11          0.6540     3.6330   -11.9570 cd         1 8BI       0.253300
     12 C12          0.0700     2.3760   -12.2200 cd         1 8BI      -0.204000
     13 N14          2.2280     2.2180   -12.1350 na         1 8BI      -0.008200
     14 N15          1.9760     3.5640   -11.9060 nc         1 8BI      -0.530800
     15 H1           0.6530     5.7520   -11.6250 h1         1 8BI       0.042200
     16 H2          -0.6080     5.1680   -12.7030 h1         1 8BI       0.042200
     17 H3           1.0770     0.3920   -12.5240 h4         1 8BI       0.151000
     18 H7          -2.5420     4.7140    -8.4330 hc         1 8BI       0.062700
     19 H8          -0.0350     5.3460    -6.7180 hc         1 8BI       0.042200
     20 H9          -1.5760     4.7770    -6.0920 hc         1 8BI       0.042200
     21 H10         -1.8110     2.2300    -5.8930 hc         1 8BI       0.031867
     22 H11         -2.5820     2.5050    -7.4590 hc         1 8BI       0.031867
     23 H12         -1.3650     1.2350    -7.2880 hc         1 8BI       0.031867
     24 H13          0.6340     2.8430    -5.5100 hc         1 8BI       0.031867
     25 H14          1.0770     1.8130    -6.8830 hc         1 8BI       0.031867
     26 H15          1.6150     3.4970    -6.8300 hc         1 8BI       0.031867
     27 H16         -1.0270     2.7070    -9.4290 hc         1 8BI       0.055700
     28 H17          0.6880     2.9920    -9.2070 hc         1 8BI       0.055700
     29 H18          0.4060     5.4420    -9.1360 h1         1 8BI       0.020700
     30 H19         -1.5560     5.8770   -10.6900 hn         1 8BI       0.413000
     31 H21         -0.9930     2.1800   -12.3090 ha         1 8BI       0.150000
     32 H22          3.1840     1.8600   -12.1510 hn         1 8BI       0.368000
     33 C01         -1.9460     6.7600    -8.2160 c3         1 8BI      -0.085100
     34 H4          -2.6470     6.9830    -7.4020 hc         1 8BI       0.032033
     35 H5          -1.0470     7.3690    -8.0590 hc         1 8BI       0.032033
     36 H6          -2.4130     7.0850    -9.1530 hc         1 8BI       0.032033
@<TRIPOS>BOND
     1     1    10 1   
     2     1    11 1   
     3     1    15 1   
     4     1    16 1   
     5     2    12 2   
     6     2    13 1   
     7     2    17 1   
     8     3     4 1   
     9     3     9 1   
    10     3    18 1   
    11     3    33 1   
    12     4     5 1   
    13     4    19 1   
    14     4    20 1   
    15     5     6 1   
    16     5     7 1   
    17     5     8 1   
    18     6    21 1   
    19     6    22 1   
    20     6    23 1   
    21     7    24 1   
    22     7    25 1   
    23     7    26 1   
    24     8     9 1   
    25     8    27 1   
    26     8    28 1   
    27     9    10 1   
    28     9    29 1   
    29    10    30 1   
    30    11    12 1   
    31    11    14 2   
    32    12    31 1   
    33    13    14 1   
    34    13    32 1   
    35    33    34 1   
    36    33    35 1   
    37    33    36 1   
@<TRIPOS>SUBSTRUCTURE
     1 8BI         1 TEMP              0 ****  ****    0 ROOT
