@<TRIPOS>MOLECULE
8BJ
   32    33     1     0     0
SMALL
abcg2


@<TRIPOS>ATOM
      1 C1          14.1840    44.2550   -22.1730 c6         1 8BJ       0.136300
      2 C2          14.0040    45.5310   -22.9990 c6         1 8BJ       0.115300
      3 C3          15.3070    46.3090   -23.0010 c6         1 8BJ       0.134300
      4 C4          16.4600    45.4500   -23.5210 c5         1 8BJ       0.178500
      5 C5          18.1970    45.7500   -21.9110 c2         1 8BJ       0.679100
      6 O1          13.0100    46.3810   -22.4300 oh         1 8BJ      -0.729000
      7 O2          15.2400    47.4610   -23.8340 oh         1 8BJ      -0.661000
      8 C6          19.5280    46.0750   -19.9910 c3         1 8BJ       0.136800
      9 C7          19.9040    47.3030   -19.1720 c3         1 8BJ      -0.083100
     10 C8          16.4650    44.0490   -22.9030 c5         1 8BJ       0.349300
     11 O3          15.2190    43.4530   -22.7640 os         1 8BJ      -0.410000
     12 C           12.9390    43.4040   -22.0810 c3         1 8BJ       0.162600
     13 O           12.4250    43.1580   -23.3900 oh         1 8BJ      -0.725000
     14 S           17.3930    44.2660   -21.2880 ss         1 8BJ      -0.488200
     15 N           17.7650    46.0010   -23.1990 nu         1 8BJ      -0.865400
     16 N1          19.0580    46.4590   -21.3120 n2         1 8BJ      -0.645900
     17 H1          14.4770    44.5300   -21.1530 h1         1 8BJ       0.073700
     18 H2          13.7360    45.2640   -24.0240 h1         1 8BJ       0.076700
     19 H3          15.5190    46.6100   -21.9680 h1         1 8BJ       0.060700
     20 H4          16.3590    45.3590   -24.6040 h1         1 8BJ       0.106700
     21 H5          12.1450    46.1190   -22.7660 ho         1 8BJ       0.517000
     22 H6          14.4990    47.9990   -23.5230 ho         1 8BJ       0.464000
     23 H7          18.7680    45.4930   -19.4500 h1         1 8BJ       0.045200
     24 H8          20.4040    45.4250   -20.0980 h1         1 8BJ       0.045200
     25 H9          20.2810    47.0080   -18.1910 hc         1 8BJ       0.039367
     26 H10         20.6790    47.8800   -19.6800 hc         1 8BJ       0.039367
     27 H11         19.0360    47.9490   -19.0270 hc         1 8BJ       0.039367
     28 H12         17.0590    43.3700   -23.5080 h2         1 8BJ       0.119700
     29 H13         12.2050    43.9350   -21.4670 h1         1 8BJ       0.042200
     30 H14         13.1940    42.4660   -21.5770 h1         1 8BJ       0.042200
     31 H15         11.6140    42.6440   -23.3030 ho         1 8BJ       0.507000
     32 H16         17.9570    46.9370   -23.5340 hn         1 8BJ       0.497000
@<TRIPOS>BOND
     1     1     2 1   
     2     1    11 1   
     3     1    12 1   
     4     1    17 1   
     5     2     3 1   
     6     2     6 1   
     7     2    18 1   
     8     3     4 1   
     9     3     7 1   
    10     3    19 1   
    11     4    10 1   
    12     4    15 1   
    13     4    20 1   
    14     5    14 1   
    15     5    15 1   
    16     5    16 2   
    17     6    21 1   
    18     7    22 1   
    19     8     9 1   
    20     8    16 1   
    21     8    23 1   
    22     8    24 1   
    23     9    25 1   
    24     9    26 1   
    25     9    27 1   
    26    10    11 1   
    27    10    14 1   
    28    10    28 1   
    29    12    13 1   
    30    12    29 1   
    31    12    30 1   
    32    13    31 1   
    33    15    32 1   
@<TRIPOS>SUBSTRUCTURE
     1 8BJ         1 TEMP              0 ****  ****    0 ROOT
