@<TRIPOS>MOLECULE
8BJ
   32    33     1     0     0
SMALL
No Charge or Current Charge


@<TRIPOS>ATOM
      1 C1          14.2040    44.3500   -22.0960 c6         1 8BJ       0.136300
      2 C2          14.1110    45.6900   -22.8930 c6         1 8BJ       0.115300
      3 C3          15.5040    46.3630   -22.9200 c6         1 8BJ       0.134300
      4 C4          16.5600    45.3980   -23.5390 c5         1 8BJ       0.178500
      5 C5          18.3540    45.4870   -22.0780 c2         1 8BJ       0.679100
      6 O1          13.1460    46.6010   -22.3180 oh         1 8BJ      -0.729000
      7 O2          15.4320    47.6050   -23.6420 oh         1 8BJ      -0.661000
      8 C6          19.7420    46.0350   -20.1630 c3         1 8BJ       0.136800
      9 C7          19.2480    47.2020   -19.2900 c3         1 8BJ      -0.083100
     10 C8          16.5630    43.9770   -22.8750 c5         1 8BJ       0.349300
     11 O3          15.2130    43.4720   -22.6660 os         1 8BJ      -0.410000
     12 C           12.8560    43.5580   -22.0550 c3         1 8BJ       0.162600
     13 O           12.3910    43.1510   -23.3590 oh         1 8BJ      -0.725000
     14 S           17.4100    44.2300   -21.2620 ss         1 8BJ      -0.488200
     15 N           17.9950    45.7970   -23.3570 nu         1 8BJ      -0.865400
     16 N1          19.2620    46.2040   -21.5440 n2         1 8BJ      -0.645900
     17 H1          14.4900    44.5750   -21.0580 h1         1 8BJ       0.073700
     18 H2          13.8290    45.4480   -23.9300 h1         1 8BJ       0.076700
     19 H3          15.7890    46.5680   -21.8760 h1         1 8BJ       0.060700
     20 H4          16.3090    45.2910   -24.6050 h1         1 8BJ       0.106700
     21 H5          12.2500    46.2930   -22.5960 ho         1 8BJ       0.517000
     22 H6          14.5740    48.0020   -23.3620 ho         1 8BJ       0.464000
     23 H7          19.4050    45.0940   -19.7120 h1         1 8BJ       0.045200
     24 H8          20.8400    46.0190   -20.1450 h1         1 8BJ       0.045200
     25 H9          19.6170    47.0910   -18.2640 hc         1 8BJ       0.039367
     26 H10         19.6090    48.1610   -19.6820 hc         1 8BJ       0.039367
     27 H11         18.1520    47.2280   -19.2600 hc         1 8BJ       0.039367
     28 H12         17.1470    43.2740   -23.4830 h2         1 8BJ       0.119700
     29 H13         12.0990    44.1770   -21.5550 h1         1 8BJ       0.042200
     30 H14         13.0110    42.6740   -21.4200 h1         1 8BJ       0.042200
     31 H15         11.6290    42.5400   -23.2170 ho         1 8BJ       0.507000
     32 H16         18.2890    46.7360   -23.6180 hn         1 8BJ       0.497000
@<TRIPOS>BOND
     1     1     2 1   
     2     1    11 1   
     3     1    12 1   
     4     1    17 1   
     5     2     3 1   
     6     2     6 1   
     7     2    18 1   
     8     3     4 1   
     9     3     7 1   
    10     3    19 1   
    11     4    10 1   
    12     4    15 1   
    13     4    20 1   
    14     5    14 1   
    15     5    15 1   
    16     5    16 2   
    17     6    21 1   
    18     7    22 1   
    19     8     9 1   
    20     8    16 1   
    21     8    23 1   
    22     8    24 1   
    23     9    25 1   
    24     9    26 1   
    25     9    27 1   
    26    10    11 1   
    27    10    14 1   
    28    10    28 1   
    29    12    13 1   
    30    12    29 1   
    31    12    30 1   
    32    13    31 1   
    33    15    32 1   
@<TRIPOS>SUBSTRUCTURE
     1 8BJ         1 TEMP              0 ****  ****    0 ROOT
