@<TRIPOS>MOLECULE
8BK
   26    27     1     0     0
SMALL
No Charge or Current Charge


@<TRIPOS>ATOM
      1 C4           8.8680    15.6180   -11.0370 ca         1 8BK      -0.184500
      2 C5           9.0610    14.8670    -9.8600 ca         1 8BK       0.163100
      3 C6          11.4930    15.2650    -9.8380 c3         1 8BK       0.243900
      4 C11          6.6690    14.4080    -9.7800 ca         1 8BK      -0.032500
      5 C7          12.6390    14.8680    -8.9540 cc         1 8BK      -0.256300
      6 C8          13.2490    13.6370    -8.8880 cd         1 8BK       0.290900
      7 C9          14.4470    14.7180    -7.3620 cc         1 8BK       0.411300
      8 C10          7.9580    14.2660    -9.2390 ca         1 8BK      -0.184500
      9 N1           4.8880    16.0150   -12.6450 nt         1 8BK      -0.604000
     10 N2          14.2910    13.5490    -7.9750 nd         1 8BK      -0.632000
     11 C3           7.5790    15.7630   -11.5820 ca         1 8BK      -0.032500
     12 O1           4.0910    14.7770   -10.9900 o          1 8BK      -0.606100
     13 C2           6.4610    15.1580   -10.9590 ca         1 8BK      -0.192600
     14 O2          10.3000    14.6910    -9.2810 os         1 8BK      -0.340100
     15 S1          13.3600    15.9950    -7.8400 ss         1 8BK       0.009600
     16 H1           9.7010    16.0970   -11.5440 ha         1 8BK       0.126000
     17 H2          11.6690    14.8890   -10.8550 h1         1 8BK       0.050700
     18 H3          11.4180    16.3600    -9.8780 h1         1 8BK       0.050700
     19 H4           5.8300    13.9300    -9.2770 ha         1 8BK       0.124000
     20 H8           8.1020    13.6860    -8.3320 ha         1 8BK       0.126000
     21 H9           3.9580    16.1110   -13.0260 hn         1 8BK       0.311500
     22 H10          5.6750    16.4500   -13.0980 hn         1 8BK       0.311500
     23 H12          7.4680    16.3490   -12.4910 ha         1 8BK       0.124000
     24 H5          12.9810    12.7690    -9.4790 h4         1 8BK       0.043100
     25 H6          15.1920    14.9190    -6.6020 h5         1 8BK       0.054100
     26 C1           5.0620    15.2930   -11.5170 c          1 8BK       0.621700
@<TRIPOS>BOND
     1     1     2 ar  
     2     1    11 ar  
     3     1    16 1   
     4     2     8 ar  
     5     2    14 1   
     6     3     5 1   
     7     3    14 1   
     8     3    17 1   
     9     3    18 1   
    10     4     8 ar  
    11     4    13 ar  
    12     4    19 1   
    13     5     6 2   
    14     5    15 1   
    15     6    10 1   
    16     6    24 1   
    17     7    10 2   
    18     7    15 1   
    19     7    25 1   
    20     8    20 1   
    21     9    21 1   
    22     9    22 1   
    23     9    26 1   
    24    11    13 ar  
    25    11    23 1   
    26    12    26 2   
    27    13    26 1   
@<TRIPOS>SUBSTRUCTURE
     1 8BK         1 TEMP              0 ****  ****    0 ROOT
