@<TRIPOS>MOLECULE
8BK
   26    27     1     0     0
SMALL
bcc


@<TRIPOS>ATOM
      1 C4           8.8940    15.5440   -11.0550 ca         1 8BK      -0.202500
      2 C5           9.0530    14.8640    -9.8490 ca         1 8BK       0.163100
      3 C6          11.4170    15.1210    -9.8690 c3         1 8BK       0.220700
      4 C11          6.6650    14.6300    -9.6800 ca         1 8BK      -0.050500
      5 C7          12.5560    14.7760    -8.9820 cc         1 8BK      -0.176700
      6 C8          13.6660    14.0480    -9.2740 cd         1 8BK       0.356200
      7 C9          14.1550    14.5040    -7.1940 cc         1 8BK       0.411300
      8 C10          7.9230    14.4060    -9.1660 ca         1 8BK      -0.202500
      9 N1           4.9520    15.7710   -12.6950 nt         1 8BK      -0.671000
     10 N2          14.5670    13.9010    -8.2610 nd         1 8BK      -0.632000
     11 C3           7.6200    15.7520   -11.5630 ca         1 8BK      -0.050500
     12 O1           4.1490    15.4960   -10.6080 o          1 8BK      -0.606100
     13 C2           6.4890    15.2980   -10.8940 ca         1 8BK      -0.192600
     14 O2          10.2380    14.6080    -9.2690 os         1 8BK      -0.316900
     15 S1          12.6420    15.3010    -7.3460 ss         1 8BK      -0.135300
     16 H1           9.7420    15.9210   -11.6100 ha         1 8BK       0.144000
     17 H2          11.5870    14.6790   -10.8570 h1         1 8BK       0.050700
     18 H3          11.3380    16.2060    -9.9970 h1         1 8BK       0.050700
     19 H4           5.8020    14.2750    -9.1320 ha         1 8BK       0.142000
     20 H8           8.0460    13.8780    -8.2280 ha         1 8BK       0.144000
     21 H9           4.0280    15.9020   -13.0720 hn         1 8BK       0.311500
     22 H10          5.6930    15.6260   -13.3580 hn         1 8BK       0.311500
     23 H12          7.5350    16.3030   -12.4910 ha         1 8BK       0.142000
     24 H5          13.8590    13.5990   -10.2390 h4         1 8BK       0.043100
     25 H6          14.6960    14.5160    -6.2570 h5         1 8BK       0.054100
     26 C1           5.0980    15.5250   -11.3810 c          1 8BK       0.688700
@<TRIPOS>BOND
     1     1     2 ar  
     2     1    11 ar  
     3     1    16 1   
     4     2     8 ar  
     5     2    14 1   
     6     3     5 1   
     7     3    14 1   
     8     3    17 1   
     9     3    18 1   
    10     4     8 ar  
    11     4    13 ar  
    12     4    19 1   
    13     5     6 2   
    14     5    15 1   
    15     6    10 1   
    16     6    24 1   
    17     7    10 2   
    18     7    15 1   
    19     7    25 1   
    20     8    20 1   
    21     9    21 1   
    22     9    22 1   
    23     9    26 1   
    24    11    13 ar  
    25    11    23 1   
    26    12    26 2   
    27    13    26 1   
@<TRIPOS>SUBSTRUCTURE
     1 8BK         1 TEMP              0 ****  ****    0 ROOT
