@<TRIPOS>MOLECULE
8BL
   77    80     1     0     0
SMALL
No Charge or Current Charge


@<TRIPOS>ATOM
      1 O25         -7.1120    -0.6970     1.7740 o          1 8BL      -0.530100
      2 C24         -6.9520    -0.2090     0.6610 c          1 8BL       0.588700
      3 C25         -8.1060     0.4790    -0.0450 ca         1 8BL      -0.217600
      4 C30         -7.9550     1.0760    -1.3200 ca         1 8BL      -0.023000
      5 C29         -9.0450     1.7060    -1.9470 ca         1 8BL      -0.194500
      6 C28        -10.2950     1.7480    -1.3140 ca         1 8BL       0.168100
      7 O29        -11.3530     2.3570    -1.9170 oh         1 8BL      -0.527100
      8 C27        -10.4580     1.1620    -0.0540 ca         1 8BL      -0.194500
      9 C26         -9.3740     0.5310     0.5800 ca         1 8BL      -0.023000
     10 C23         -5.5780    -0.2880    -0.0350 c3         1 8BL      -0.175400
     11 C20         -4.4630    -1.0320     0.7420 c3         1 8BL      -0.067400
     12 C19         -3.1200    -1.0680    -0.0320 c3         1 8BL      -0.078400
     13 C18         -1.8960    -1.6450     0.7520 c3         1 8BL      -0.047700
     14 C22         -2.1230    -3.1380     1.1030 c3         1 8BL      -0.087100
     15 C17         -0.5460    -1.4030    -0.0660 c5         1 8BL      -0.053700
     16 C13          0.8200    -1.9100     0.5380 c5         1 8BL      -0.035000
     17 C21          1.0330    -1.4720     2.0260 c3         1 8BL      -0.079100
     18 C12          1.1430    -3.4580     0.4260 c6         1 8BL      -0.062400
     19 C11          2.6540    -3.8380     0.6940 c6         1 8BL      -0.072400
     20 C10          3.6440    -3.0130    -0.1760 c6         1 8BL      -0.042200
     21 C16         -0.2430     0.1280    -0.3190 c5         1 8BL      -0.076400
     22 C15          1.3130     0.2750    -0.3970 c5         1 8BL      -0.071400
     23 C14          1.7830    -1.2000    -0.5040 c5         1 8BL      -0.035500
     24 C9           3.2970    -1.5170    -0.2470 c2         1 8BL      -0.081400
     25 C8           4.1820    -0.4820    -0.1960 ce         1 8BL      -0.189000
     26 C7           5.6470    -0.6100    -0.0470 ce         1 8BL      -0.161000
     27 C6           6.5320     0.3940     0.1850 c2         1 8BL      -0.106400
     28 C1           8.0320     0.1210     0.2940 c6         1 8BL      -0.032700
     29 C5           6.1930     1.8740     0.3800 c6         1 8BL      -0.032700
     30 C4           6.9790     2.7590    -0.6170 c6         1 8BL       0.211000
     31 O2           6.6710     4.1370    -0.3880 oh         1 8BL      -0.653500
     32 C3           8.4920     2.4970    -0.5170 c2         1 8BL      -0.199400
     33 C33          9.4310     3.4500    -0.3360 c2         1 8BL      -0.297000
     34 C2           8.8750     1.0240    -0.6450 c6         1 8BL       0.211000
     35 O1           8.7230     0.6250    -2.0080 oh         1 8BL      -0.653500
     36 H1          -7.0010     1.0640    -1.8420 ha         1 8BL       0.125000
     37 H2          -8.9080     2.1590    -2.9260 ha         1 8BL       0.125000
     38 H3         -11.0550     2.7070    -2.7840 ho         1 8BL       0.469000
     39 H4         -11.4280     1.1950     0.4370 ha         1 8BL       0.125000
     40 H5          -9.5280     0.0820     1.5600 ha         1 8BL       0.125000
     41 H6          -5.7310    -0.7220    -1.0300 hc         1 8BL       0.059200
     42 H7          -5.2760     0.7350    -0.2900 hc         1 8BL       0.059200
     43 H8          -4.3090    -0.5400     1.7110 hc         1 8BL       0.053700
     44 H9          -4.8090    -2.0510     0.9460 hc         1 8BL       0.053700
     45 H10         -3.2560    -1.6390    -0.9590 hc         1 8BL       0.036200
     46 H11         -2.8990    -0.0390    -0.3360 hc         1 8BL       0.036200
     47 H12         -1.8940    -1.1130     1.7280 hc         1 8BL       0.050700
     48 H13         -1.4140    -3.4650     1.8690 hc         1 8BL       0.033700
     49 H14         -3.1160    -3.3170     1.5260 hc         1 8BL       0.033700
     50 H15         -2.0090    -3.7740     0.2160 hc         1 8BL       0.033700
     51 H16         -0.7070    -1.8950    -1.0330 hc         1 8BL       0.042700
     52 H17          0.4670    -2.1140     2.7110 hc         1 8BL       0.034700
     53 H18          2.0870    -1.5300     2.3210 hc         1 8BL       0.034700
     54 H19          0.7040    -0.4450     2.2190 hc         1 8BL       0.034700
     55 H20          0.5260    -4.0390     1.1190 hc         1 8BL       0.040700
     56 H21          0.8680    -3.8080    -0.5780 hc         1 8BL       0.040700
     57 H22          2.8870    -3.6780     1.7550 hc         1 8BL       0.040200
     58 H23          2.8060    -4.9110     0.5110 hc         1 8BL       0.040200
     59 H24          4.6550    -3.1810     0.2120 hc         1 8BL       0.047200
     60 H25          3.6390    -3.4150    -1.1980 hc         1 8BL       0.047200
     61 H26         -0.7180     0.4700    -1.2460 hc         1 8BL       0.040200
     62 H27         -0.6420     0.7590     0.4840 hc         1 8BL       0.040200
     63 H28          1.6240     0.8720    -1.2620 hc         1 8BL       0.045200
     64 H29          1.7010     0.7760     0.4970 hc         1 8BL       0.045200
     65 H30          1.5610    -1.5600    -1.5180 hc         1 8BL       0.051700
     66 H31          3.8210     0.5350    -0.3020 ha         1 8BL       0.173000
     67 H32          6.0510    -1.6150    -0.1570 ha         1 8BL       0.170000
     68 H33          8.3470     0.2990     1.3310 hc         1 8BL       0.058450
     69 H34          8.2580    -0.9350     0.0900 hc         1 8BL       0.058450
     70 H35          5.1230     2.0800     0.2790 hc         1 8BL       0.058450
     71 H36          6.4550     2.1660     1.4060 hc         1 8BL       0.058450
     72 H37          6.6530     2.4830    -1.6320 h1         1 8BL       0.042200
     73 H38          7.1770     4.6390    -1.0620 ho         1 8BL       0.441500
     74 H39          9.1920     4.5080    -0.2320 ha         1 8BL       0.167500
     75 H40         10.4910     3.2000    -0.2730 ha         1 8BL       0.167500
     76 H41          9.9300     0.9050    -0.3530 h1         1 8BL       0.042200
     77 H42          9.2050     1.2960    -2.5360 ho         1 8BL       0.441500
@<TRIPOS>BOND
     1     1     2 2   
     2     2     3 1   
     3     2    10 1   
     4     3     4 ar  
     5     3     9 ar  
     6     4     5 ar  
     7     4    36 1   
     8     5     6 ar  
     9     5    37 1   
    10     6     7 1   
    11     6     8 ar  
    12     7    38 1   
    13     8     9 ar  
    14     8    39 1   
    15     9    40 1   
    16    10    11 1   
    17    10    41 1   
    18    10    42 1   
    19    11    12 1   
    20    11    43 1   
    21    11    44 1   
    22    12    13 1   
    23    12    45 1   
    24    12    46 1   
    25    13    14 1   
    26    13    15 1   
    27    13    47 1   
    28    14    48 1   
    29    14    49 1   
    30    14    50 1   
    31    15    16 1   
    32    15    21 1   
    33    15    51 1   
    34    16    17 1   
    35    16    18 1   
    36    16    23 1   
    37    17    52 1   
    38    17    53 1   
    39    17    54 1   
    40    18    19 1   
    41    18    55 1   
    42    18    56 1   
    43    19    20 1   
    44    19    57 1   
    45    19    58 1   
    46    20    24 1   
    47    20    59 1   
    48    20    60 1   
    49    21    22 1   
    50    21    61 1   
    51    21    62 1   
    52    22    23 1   
    53    22    63 1   
    54    22    64 1   
    55    23    24 1   
    56    23    65 1   
    57    24    25 2   
    58    25    26 1   
    59    25    66 1   
    60    26    27 2   
    61    26    67 1   
    62    27    28 1   
    63    27    29 1   
    64    28    34 1   
    65    28    68 1   
    66    28    69 1   
    67    29    30 1   
    68    29    70 1   
    69    29    71 1   
    70    30    31 1   
    71    30    32 1   
    72    30    72 1   
    73    31    73 1   
    74    32    33 2   
    75    32    34 1   
    76    33    74 1   
    77    33    75 1   
    78    34    35 1   
    79    34    76 1   
    80    35    77 1   
@<TRIPOS>SUBSTRUCTURE
     1 8BL         1 TEMP              0 ****  ****    0 ROOT
