@<TRIPOS>MOLECULE
8BL
   77    80     1     0     0
SMALL
bcc


@<TRIPOS>ATOM
      1 O25         -6.6300     0.0140     2.0680 o          1 8BL      -0.530100
      2 C24         -6.6650     0.1090     0.8570 c          1 8BL       0.588700
      3 C25         -7.9220     0.4930     0.1690 ca         1 8BL      -0.217600
      4 C30         -8.0180     0.6030    -1.2180 ca         1 8BL      -0.041000
      5 C29         -9.2080     0.9530    -1.8300 ca         1 8BL      -0.212500
      6 C28        -10.3400     1.2030    -1.0560 ca         1 8BL       0.168100
      7 O29        -11.5210     1.5420    -1.5900 oh         1 8BL      -0.488100
      8 C27        -10.2610     1.1020     0.3350 ca         1 8BL      -0.212500
      9 C26         -9.0670     0.7520     0.9300 ca         1 8BL      -0.041000
     10 C23         -5.4380    -0.1520     0.0160 c3         1 8BL      -0.175400
     11 C20         -4.2410    -0.6780     0.7930 c3         1 8BL      -0.067400
     12 C19         -3.0330    -0.8780    -0.1170 c3         1 8BL      -0.078400
     13 C18         -1.7940    -1.4520     0.5860 c3         1 8BL      -0.047700
     14 C22         -2.0430    -2.9050     0.9850 c3         1 8BL      -0.087100
     15 C17         -0.5570    -1.2790    -0.3080 c5         1 8BL      -0.053700
     16 C13          0.8120    -1.7850     0.2090 c5         1 8BL      -0.035000
     17 C21          1.0430    -1.3350     1.6530 c3         1 8BL      -0.079100
     18 C12          1.0830    -3.2830     0.0480 c6         1 8BL      -0.062400
     19 C11          2.5540    -3.6220     0.2930 c6         1 8BL      -0.072400
     20 C10          3.5100    -2.7830    -0.5650 c6         1 8BL      -0.042200
     21 C16         -0.2940     0.2100    -0.6600 c5         1 8BL      -0.076400
     22 C15          1.2310     0.3900    -0.7780 c5         1 8BL      -0.071400
     23 C14          1.7620    -1.0340    -0.7600 c5         1 8BL      -0.035500
     24 C9           3.2030    -1.3130    -0.4700 c2         1 8BL      -0.081400
     25 C8           4.0900    -0.3480    -0.1730 ce         1 8BL      -0.139000
     26 C7           5.4900    -0.5450     0.1530 ce         1 8BL      -0.111000
     27 C6           6.3940     0.4080     0.4320 c2         1 8BL      -0.106400
     28 C1           7.8110     0.0560     0.7770 c6         1 8BL      -0.032700
     29 C5           6.1330     1.8870     0.4170 c6         1 8BL      -0.032700
     30 C4           7.0960     2.5860    -0.5490 c6         1 8BL       0.187800
     31 O2           6.8340     3.9660    -0.5100 oh         1 8BL      -0.591300
     32 C3           8.5150     2.2290    -0.1790 c2         1 8BL      -0.199400
     33 C33          9.4380     3.1220     0.1620 c2         1 8BL      -0.197000
     34 C2           8.7990     0.7480    -0.1600 c6         1 8BL       0.187800
     35 O1           8.6430     0.1750    -1.4440 oh         1 8BL      -0.591300
     36 H1          -7.1590     0.4150    -1.8490 ha         1 8BL       0.143000
     37 H2          -9.2560     1.0280    -2.9100 ha         1 8BL       0.143000
     38 H3         -11.4660     1.5710    -2.5520 ho         1 8BL       0.430000
     39 H4         -11.1370     1.2990     0.9380 ha         1 8BL       0.143000
     40 H5          -9.0210     0.6760     2.0080 ha         1 8BL       0.143000
     41 H6          -5.6980    -0.8550    -0.7820 hc         1 8BL       0.059200
     42 H7          -5.1770     0.7800    -0.5000 hc         1 8BL       0.059200
     43 H8          -3.9760     0.0200     1.5920 hc         1 8BL       0.053700
     44 H9          -4.5200    -1.6140     1.2820 hc         1 8BL       0.053700
     45 H10         -3.3030    -1.5350    -0.9530 hc         1 8BL       0.036200
     46 H11         -2.7860     0.0880    -0.5650 hc         1 8BL       0.036200
     47 H12         -1.6340    -0.8650     1.5000 hc         1 8BL       0.050700
     48 H13         -1.2820    -3.2810     1.6670 hc         1 8BL       0.033700
     49 H14         -3.0040    -3.0230     1.4870 hc         1 8BL       0.033700
     50 H15         -2.0470    -3.5530     0.1050 hc         1 8BL       0.033700
     51 H16         -0.7590    -1.8260    -1.2410 hc         1 8BL       0.042700
     52 H17          0.4440    -1.9270     2.3480 hc         1 8BL       0.034700
     53 H18          2.0870    -1.4480     1.9520 hc         1 8BL       0.034700
     54 H19          0.7750    -0.2890     1.8080 hc         1 8BL       0.034700
     55 H20          0.4700    -3.8790     0.7240 hc         1 8BL       0.040700
     56 H21          0.8070    -3.5790    -0.9710 hc         1 8BL       0.040700
     57 H22          2.8010    -3.4860     1.3490 hc         1 8BL       0.040200
     58 H23          2.7200    -4.6790     0.0760 hc         1 8BL       0.040200
     59 H24          4.5400    -3.0110    -0.2960 hc         1 8BL       0.047200
     60 H25          3.3860    -3.0780    -1.6130 hc         1 8BL       0.047200
     61 H26         -0.7970     0.4840    -1.5880 hc         1 8BL       0.040200
     62 H27         -0.7000     0.8630     0.1170 hc         1 8BL       0.040200
     63 H28          1.5250     0.9230    -1.6840 hc         1 8BL       0.045200
     64 H29          1.6150     0.9670     0.0660 hc         1 8BL       0.045200
     65 H30          1.5600    -1.4680    -1.7520 hc         1 8BL       0.051700
     66 H31          3.7270     0.6740    -0.1700 ha         1 8BL       0.123000
     67 H32          5.8440    -1.5700     0.1930 ha         1 8BL       0.120000
     68 H33          8.0410     0.3920     1.7940 hc         1 8BL       0.058450
     69 H34          7.9720    -1.0250     0.7540 hc         1 8BL       0.058450
     70 H35          5.1080     2.1260     0.1320 hc         1 8BL       0.058450
     71 H36          6.2990     2.2960     1.4210 hc         1 8BL       0.058450
     72 H37          6.8960     2.1880    -1.5530 h1         1 8BL       0.042200
     73 H38          7.2800     4.3780    -1.2550 ho         1 8BL       0.402500
     74 H39          9.2410     4.1850     0.1960 ha         1 8BL       0.117500
     75 H40         10.4380     2.8120     0.4370 ha         1 8BL       0.117500
     76 H41          9.8170     0.5830     0.2170 h1         1 8BL       0.042200
     77 H42          9.2750     0.5970    -2.0320 ho         1 8BL       0.402500
@<TRIPOS>BOND
     1     1     2 2   
     2     2     3 1   
     3     2    10 1   
     4     3     4 ar  
     5     3     9 ar  
     6     4     5 ar  
     7     4    36 1   
     8     5     6 ar  
     9     5    37 1   
    10     6     7 1   
    11     6     8 ar  
    12     7    38 1   
    13     8     9 ar  
    14     8    39 1   
    15     9    40 1   
    16    10    11 1   
    17    10    41 1   
    18    10    42 1   
    19    11    12 1   
    20    11    43 1   
    21    11    44 1   
    22    12    13 1   
    23    12    45 1   
    24    12    46 1   
    25    13    14 1   
    26    13    15 1   
    27    13    47 1   
    28    14    48 1   
    29    14    49 1   
    30    14    50 1   
    31    15    16 1   
    32    15    21 1   
    33    15    51 1   
    34    16    17 1   
    35    16    18 1   
    36    16    23 1   
    37    17    52 1   
    38    17    53 1   
    39    17    54 1   
    40    18    19 1   
    41    18    55 1   
    42    18    56 1   
    43    19    20 1   
    44    19    57 1   
    45    19    58 1   
    46    20    24 1   
    47    20    59 1   
    48    20    60 1   
    49    21    22 1   
    50    21    61 1   
    51    21    62 1   
    52    22    23 1   
    53    22    63 1   
    54    22    64 1   
    55    23    24 1   
    56    23    65 1   
    57    24    25 2   
    58    25    26 1   
    59    25    66 1   
    60    26    27 2   
    61    26    67 1   
    62    27    28 1   
    63    27    29 1   
    64    28    34 1   
    65    28    68 1   
    66    28    69 1   
    67    29    30 1   
    68    29    70 1   
    69    29    71 1   
    70    30    31 1   
    71    30    32 1   
    72    30    72 1   
    73    31    73 1   
    74    32    33 2   
    75    32    34 1   
    76    33    74 1   
    77    33    75 1   
    78    34    35 1   
    79    34    76 1   
    80    35    77 1   
@<TRIPOS>SUBSTRUCTURE
     1 8BL         1 TEMP              0 ****  ****    0 ROOT
