@<TRIPOS>MOLECULE
8BM
   70    74     1     0     0
SMALL
bcc


@<TRIPOS>ATOM
      1 C5           0.5600    -4.4270     1.3940 c5         1 8BM       0.107000
      2 C6          -0.9470    -4.1990     1.3570 c5         1 8BM      -0.114400
      3 C7          -1.0590    -2.7550     0.8840 c5         1 8BM       0.234500
      4 C8           0.0190    -2.6930    -0.1990 c5         1 8BM       0.087000
      5 C10         -2.8210    -1.1380     0.3280 ca         1 8BM       0.961900
      6 C15          0.8270     0.8390     0.7460 ca         1 8BM      -0.131500
      7 C17          2.9500     1.8190     0.0690 ca         1 8BM       0.132600
      8 C21          5.0820     2.9000    -0.3850 c6         1 8BM       0.190300
      9 C22          6.5590     2.7170    -0.0850 c6         1 8BM       0.160300
     10 C24          8.5040     1.3960    -0.5440 c3         1 8BM       0.154100
     11 C26          4.8730     0.5270    -0.6530 c6         1 8BM       0.190300
     12 C1           3.3420    -4.2300     0.8050 c3         1 8BM      -0.179100
     13 O3           2.7310    -2.5800    -0.8230 o          1 8BM      -0.605100
     14 N4           1.0690    -3.5260     0.3620 n          1 8BM      -0.490800
     15 N9          -2.3870    -2.4170     0.4500 nu         1 8BM      -0.865900
     16 N11         -1.8710    -0.1930     0.3630 nb         1 8BM      -0.865000
     17 C12         -2.2090     1.0830     0.2540 ca         1 8BM       0.810200
     18 N13         -1.2720     2.0570     0.2790 nu         1 8BM      -0.721300
     19 C14          0.1230     1.9350     0.2430 ca         1 8BM       0.126600
     20 C16          2.2040     0.7860     0.6500 ca         1 8BM      -0.147500
     21 C18          2.2400     2.9300    -0.3920 ca         1 8BM      -0.147500
     22 C19          0.8560     2.9830    -0.3060 ca         1 8BM      -0.131500
     23 N20          4.3430     1.7170     0.0030 nh         1 8BM      -0.643000
     24 N23          7.0840     1.5470    -0.7570 n3         1 8BM      -0.716600
     25 C25          6.3490     0.3690    -0.3490 c6         1 8BM       0.160300
     26 C27         -3.5690     1.4070     0.1030 ca         1 8BM      -0.269200
     27 N28         -4.2440     2.5920    -0.0460 nc         1 8BM      -0.547100
     28 C29         -5.4900     2.2360    -0.1590 cd         1 8BM       0.393700
     29 N30         -5.6810     0.8810    -0.0910 na         1 8BM      -0.256000
     30 C31         -6.9420     0.1560    -0.2150 c3         1 8BM       0.064000
     31 C32         -7.9660     0.6730     0.7840 c3         1 8BM      -0.106600
     32 C33         -7.4500     0.2050    -1.6500 c3         1 8BM      -0.106600
     33 C34         -4.4460     0.3310     0.0720 ca         1 8BM       0.493800
     34 N35         -4.1330    -0.9560     0.1800 nb         1 8BM      -0.819000
     35 H1           0.9690    -4.1660     2.3740 h1         1 8BM       0.045200
     36 H2           0.8220    -5.4660     1.1900 h1         1 8BM       0.045200
     37 H3          -1.4160    -4.8650     0.6280 hc         1 8BM       0.059200
     38 H4          -1.4130    -4.3750     2.3260 hc         1 8BM       0.059200
     39 H5          -0.7590    -2.0920     1.7040 h1         1 8BM       0.067700
     40 H6          -0.3650    -3.1050    -1.1390 h1         1 8BM       0.075200
     41 H7           0.3760    -1.6830    -0.3890 h1         1 8BM       0.075200
     42 H8           0.3040     0.0230     1.2170 ha         1 8BM       0.141000
     43 H9           4.7200     3.7590     0.1830 h1         1 8BM       0.048200
     44 H10          4.9560     3.1350    -1.4540 h1         1 8BM       0.048200
     45 H11          7.0980     3.6030    -0.4310 h1         1 8BM       0.037200
     46 H12          6.6990     2.6570     1.0080 h1         1 8BM       0.037200
     47 H13          8.7730     1.2510     0.5140 h1         1 8BM       0.029367
     48 H14          8.8760     0.5360    -1.1020 h1         1 8BM       0.029367
     49 H15          9.0330     2.2810    -0.9020 h1         1 8BM       0.029367
     50 H16          4.3460    -0.3630    -0.3120 h1         1 8BM       0.048200
     51 H17          4.7290     0.5900    -1.7420 h1         1 8BM       0.048200
     52 H18          3.1670    -5.2910     0.6210 hc         1 8BM       0.058700
     53 H19          4.3580    -3.9890     0.5020 hc         1 8BM       0.058700
     54 H20          3.2530    -4.0740     1.8820 hc         1 8BM       0.058700
     55 H21         -3.1030    -3.1220     0.5070 hn         1 8BM       0.447800
     56 H22         -1.6280     2.9860     0.1090 hn         1 8BM       0.459800
     57 H23          2.7100    -0.0790     1.0570 ha         1 8BM       0.134000
     58 H24          2.7500     3.7670    -0.8490 ha         1 8BM       0.134000
     59 H25          0.3420     3.8530    -0.6980 ha         1 8BM       0.141000
     60 H27          6.4760     0.1600     0.7280 h1         1 8BM       0.037200
     61 H28          6.7310    -0.4990    -0.8920 h1         1 8BM       0.037200
     62 H29         -6.3170     2.9180    -0.2890 h5         1 8BM       0.063800
     63 H30         -6.7010    -0.8770     0.0360 h1         1 8BM       0.087700
     64 H31         -8.2880     1.6890     0.5510 hc         1 8BM       0.046700
     65 H32         -8.8510     0.0370     0.7630 hc         1 8BM       0.046700
     66 H33         -7.5680     0.6610     1.7990 hc         1 8BM       0.046700
     67 H34         -8.3370    -0.4200    -1.7520 hc         1 8BM       0.046700
     68 H35         -7.7200     1.2220    -1.9410 hc         1 8BM       0.046700
     69 H36         -6.6960    -0.1620    -2.3460 hc         1 8BM       0.046700
     70 C2           2.3660    -3.3700     0.0400 c          1 8BM       0.674100
@<TRIPOS>BOND
     1     1     2 1   
     2     1    14 1   
     3     1    35 1   
     4     1    36 1   
     5     2     3 1   
     6     2    37 1   
     7     2    38 1   
     8     3     4 1   
     9     3    15 1   
    10     3    39 1   
    11     4    14 1   
    12     4    40 1   
    13     4    41 1   
    14     5    15 1   
    15     5    16 ar  
    16     5    34 ar  
    17     6    19 ar  
    18     6    20 ar  
    19     6    42 1   
    20     7    20 ar  
    21     7    21 ar  
    22     7    23 1   
    23     8     9 1   
    24     8    23 1   
    25     8    43 1   
    26     8    44 1   
    27     9    24 1   
    28     9    45 1   
    29     9    46 1   
    30    10    24 1   
    31    10    47 1   
    32    10    48 1   
    33    10    49 1   
    34    11    23 1   
    35    11    25 1   
    36    11    50 1   
    37    11    51 1   
    38    12    52 1   
    39    12    53 1   
    40    12    54 1   
    41    12    70 1   
    42    13    70 2   
    43    14    70 1   
    44    15    55 1   
    45    16    17 ar  
    46    17    18 1   
    47    17    26 ar  
    48    18    19 1   
    49    18    56 1   
    50    19    22 ar  
    51    20    57 1   
    52    21    22 ar  
    53    21    58 1   
    54    22    59 1   
    55    24    25 1   
    56    25    60 1   
    57    25    61 1   
    58    26    27 1   
    59    26    33 ar  
    60    27    28 2   
    61    28    29 1   
    62    28    62 1   
    63    29    30 1   
    64    29    33 1   
    65    30    31 1   
    66    30    32 1   
    67    30    63 1   
    68    31    64 1   
    69    31    65 1   
    70    31    66 1   
    71    32    67 1   
    72    32    68 1   
    73    32    69 1   
    74    33    34 ar  
@<TRIPOS>SUBSTRUCTURE
     1 8BM         1 TEMP              0 ****  ****    0 ROOT
