@<TRIPOS>MOLECULE
8BM
   70    74     1     0     0
SMALL
No Charge or Current Charge


@<TRIPOS>ATOM
      1 C5           0.2450    -4.6940     1.4830 c5         1 8BM       0.107000
      2 C6          -1.2580    -4.3390     1.3290 c5         1 8BM      -0.114400
      3 C7          -1.1660    -2.8560     0.8960 c5         1 8BM       0.234500
      4 C8          -0.0750    -2.9320    -0.2150 c5         1 8BM       0.087000
      5 C10         -2.8030    -1.2290     0.1170 ca         1 8BM       0.435900
      6 C15          0.9370     0.9780     0.5140 ca         1 8BM      -0.113500
      7 C17          3.0380     1.9870    -0.2330 ca         1 8BM       0.271000
      8 C21          5.2300     3.2490    -0.4920 c6         1 8BM       0.190300
      9 C22          6.6940     3.1730     0.0530 c6         1 8BM       0.160300
     10 C24          8.8310     1.9250     0.0440 c3         1 8BM       0.154100
     11 C26          5.2030     0.7580    -0.6480 c6         1 8BM       0.190300
     12 C1           3.0460    -5.1610     0.5830 c3         1 8BM      -0.179100
     13 O3           2.5970    -3.4480    -1.0330 o          1 8BM      -0.605100
     14 N4           0.8500    -3.9350     0.3640 n          1 8BM      -0.423800
     15 N9          -2.4720    -2.5770     0.2250 nu         1 8BM      -0.921100
     16 N11         -1.8140    -0.3200     0.0130 nb         1 8BM      -0.339000
     17 C12         -2.1870     0.9630    -0.0880 ca         1 8BM       0.481900
     18 N13         -1.2050     1.9380    -0.2230 nu         1 8BM      -0.914900
     19 C14          0.1940     1.9320    -0.2080 ca         1 8BM       0.265000
     20 C16          2.3440     1.0040     0.4970 ca         1 8BM      -0.129500
     21 C18          2.2920     2.9570    -0.9350 ca         1 8BM      -0.129500
     22 C19          0.8840     2.9300    -0.9180 ca         1 8BM      -0.113500
     23 N20          4.4540     1.9910    -0.2410 nh         1 8BM      -0.781400
     24 N23          7.4350     1.9710    -0.4380 n3         1 8BM      -0.716600
     25 C25          6.6680     0.7330    -0.1000 c6         1 8BM       0.160300
     26 C27         -3.5510     1.3180    -0.1110 ca         1 8BM      -0.138600
     27 N28         -4.1300     2.5810    -0.2350 nc         1 8BM      -0.547100
     28 C29         -5.4450     2.2920    -0.1940 cd         1 8BM       0.393700
     29 N30         -5.7090     0.9190    -0.0540 na         1 8BM      -0.285300
     30 C31         -7.0030     0.2180     0.0250 c3         1 8BM       0.093300
     31 C32         -7.8060     0.6570     1.2670 c3         1 8BM      -0.106600
     32 C33         -7.8150     0.3900    -1.2750 c3         1 8BM      -0.106600
     33 C34         -4.4800     0.3140    -0.0050 ca         1 8BM       0.165500
     34 N35         -4.1260    -0.9800     0.1110 nb         1 8BM      -0.293000
     35 H1           0.6460    -4.3480     2.4450 h1         1 8BM       0.045200
     36 H2           0.4140    -5.7760     1.4000 h1         1 8BM       0.045200
     37 H3          -1.7200    -4.9710     0.5610 hc         1 8BM       0.059200
     38 H4          -1.8200    -4.4790     2.2590 hc         1 8BM       0.059200
     39 H5          -0.9050    -2.1930     1.7360 h1         1 8BM       0.067700
     40 H6          -0.4800    -3.2880    -1.1710 h1         1 8BM       0.075200
     41 H7           0.4100    -1.9610    -0.3800 h1         1 8BM       0.075200
     42 H8           0.4370     0.2220     1.1100 ha         1 8BM       0.123000
     43 H9           4.7320     4.1060    -0.0150 h1         1 8BM       0.048200
     44 H10          5.2690     3.4520    -1.5730 h1         1 8BM       0.048200
     45 H11          7.2230     4.0910    -0.2410 h1         1 8BM       0.037200
     46 H12          6.6540     3.1660     1.1520 h1         1 8BM       0.037200
     47 H13          8.8660     1.8570     1.1400 h1         1 8BM       0.029367
     48 H14          9.3570     1.0560    -0.3720 h1         1 8BM       0.029367
     49 H15          9.3760     2.8290    -0.2620 h1         1 8BM       0.029367
     50 H16          4.6900    -0.1480    -0.2950 h1         1 8BM       0.048200
     51 H17          5.2400     0.6980    -1.7460 h1         1 8BM       0.048200
     52 H18          2.5620    -6.1410     0.5060 hc         1 8BM       0.058700
     53 H19          4.0620    -5.1880     0.1750 hc         1 8BM       0.058700
     54 H20          3.0500    -4.9800     1.6640 hc         1 8BM       0.058700
     55 H21         -3.2750    -3.1830     0.3930 hn         1 8BM       0.503000
     56 H22         -1.6260     2.8330    -0.4720 hn         1 8BM       0.515000
     57 H23          2.8960     0.2640     1.0680 ha         1 8BM       0.116000
     58 H24          2.7950     3.7280    -1.5100 ha         1 8BM       0.116000
     59 H25          0.3300     3.6810    -1.4740 ha         1 8BM       0.123000
     60 H27          6.6260     0.6040     0.9920 h1         1 8BM       0.037200
     61 H28          7.1770    -0.1530    -0.5060 h1         1 8BM       0.037200
     62 H29         -6.2520     3.0130    -0.2610 h5         1 8BM       0.063800
     63 H30         -6.7970    -0.8550     0.1370 h1         1 8BM       0.087700
     64 H31         -8.0650     1.7210     1.2130 hc         1 8BM       0.046700
     65 H32         -8.7350     0.0800     1.3490 hc         1 8BM       0.046700
     66 H33         -7.2210     0.4900     2.1800 hc         1 8BM       0.046700
     67 H34         -8.7450    -0.1900    -1.2280 hc         1 8BM       0.046700
     68 H35         -8.0740     1.4420    -1.4410 hc         1 8BM       0.046700
     69 H36         -7.2380     0.0360    -2.1380 hc         1 8BM       0.046700
     70 C2           2.1650    -4.1160    -0.1030 c          1 8BM       0.607100
@<TRIPOS>BOND
     1     1     2 1   
     2     1    14 1   
     3     1    35 1   
     4     1    36 1   
     5     2     3 1   
     6     2    37 1   
     7     2    38 1   
     8     3     4 1   
     9     3    15 1   
    10     3    39 1   
    11     4    14 1   
    12     4    40 1   
    13     4    41 1   
    14     5    15 1   
    15     5    16 ar  
    16     5    34 ar  
    17     6    19 ar  
    18     6    20 ar  
    19     6    42 1   
    20     7    20 ar  
    21     7    21 ar  
    22     7    23 1   
    23     8     9 1   
    24     8    23 1   
    25     8    43 1   
    26     8    44 1   
    27     9    24 1   
    28     9    45 1   
    29     9    46 1   
    30    10    24 1   
    31    10    47 1   
    32    10    48 1   
    33    10    49 1   
    34    11    23 1   
    35    11    25 1   
    36    11    50 1   
    37    11    51 1   
    38    12    52 1   
    39    12    53 1   
    40    12    54 1   
    41    12    70 1   
    42    13    70 2   
    43    14    70 1   
    44    15    55 1   
    45    16    17 ar  
    46    17    18 1   
    47    17    26 ar  
    48    18    19 1   
    49    18    56 1   
    50    19    22 ar  
    51    20    57 1   
    52    21    22 ar  
    53    21    58 1   
    54    22    59 1   
    55    24    25 1   
    56    25    60 1   
    57    25    61 1   
    58    26    27 1   
    59    26    33 ar  
    60    27    28 2   
    61    28    29 1   
    62    28    62 1   
    63    29    30 1   
    64    29    33 1   
    65    30    31 1   
    66    30    32 1   
    67    30    63 1   
    68    31    64 1   
    69    31    65 1   
    70    31    66 1   
    71    32    67 1   
    72    32    68 1   
    73    32    69 1   
    74    33    34 ar  
@<TRIPOS>SUBSTRUCTURE
     1 8BM         1 TEMP              0 ****  ****    0 ROOT
