@<TRIPOS>MOLECULE
8BN
   47    50     1     0     0
SMALL
No Charge or Current Charge


@<TRIPOS>ATOM
      1 C10         39.6780   -41.3780   -66.3690 cc         1 8BN       0.409800
      2 C13         46.0810   -40.4060   -68.5030 ca         1 8BN       0.263000
      3 C15         43.8580   -37.2880   -68.4760 c6         1 8BN      -0.144400
      4 C02         39.1400   -39.8910   -69.5880 ca         1 8BN      -0.105000
      5 C04         41.4480   -39.1420   -69.9020 ca         1 8BN      -0.217000
      6 C05         41.8150   -39.6790   -68.6390 ca         1 8BN       0.201100
      7 C06         40.8170   -40.3270   -67.8830 ca         1 8BN       0.050400
      8 C07         39.2650   -42.1080   -65.1270 c3         1 8BN      -0.113400
      9 C09         44.1270   -38.7890   -68.7210 c6         1 8BN       0.238600
     10 C11         45.4540   -39.2150   -68.0930 ca         1 8BN      -0.244300
     11 C12         46.0680   -38.4250   -67.0980 ca         1 8BN       0.226100
     12 C14         44.1330   -36.9520   -67.0010 c6         1 8BN       0.162600
     13 C16         47.2940   -38.8140   -66.5450 ca         1 8BN      -0.220000
     14 O03         45.5050   -37.2420   -66.6680 os         1 8BN      -0.334100
     15 C01         39.5390   -40.4120   -68.3540 ca         1 8BN      -0.057200
     16 C03         40.1150   -39.2590   -70.3970 ca         1 8BN      -0.087600
     17 C08         39.6940   -38.6790   -71.7390 c          1 8BN       0.612700
     18 C17         47.3020   -40.8000   -67.9420 ca         1 8BN      -0.246000
     19 C18         47.9050   -40.0000   -66.9650 ca         1 8BN       0.246000
     20 C35         41.6970   -39.6270   -72.9390 c3         1 8BN       0.086300
     21 C36         40.3200   -37.8240   -74.0060 c3         1 8BN       0.086300
     22 F02         49.0850   -40.3750   -66.4260 f          1 8BN      -0.168000
     23 N01         38.8110   -41.0710   -67.4120 na         1 8BN      -0.312600
     24 N02         40.9230   -40.9330   -66.6240 nd         1 8BN      -0.548100
     25 N03         40.6450   -38.5940   -72.7860 n          1 8BN      -0.407800
     26 O02         38.5660   -38.2200   -71.8880 o          1 8BN      -0.594100
     27 O04         43.0990   -39.6040   -68.1220 os         1 8BN      -0.316100
     28 H1          44.5130   -36.6840   -69.1180 hc         1 8BN       0.071700
     29 H2          42.8270   -37.0190   -68.7390 hc         1 8BN       0.071700
     30 H3          38.1090   -39.9840   -69.9210 ha         1 8BN       0.133000
     31 H4          42.1780   -38.6110   -70.5010 ha         1 8BN       0.124000
     32 H5          40.1130   -42.2390   -64.4460 hc         1 8BN       0.060033
     33 H6          38.4840   -41.5540   -64.5940 hc         1 8BN       0.060033
     34 H7          38.8720   -43.1010   -65.3750 hc         1 8BN       0.060033
     35 H8          44.1710   -38.9940   -69.8010 h1         1 8BN       0.065700
     36 H9          43.9340   -35.8890   -66.8020 h1         1 8BN       0.071200
     37 H10         43.4750   -37.5480   -66.3510 h1         1 8BN       0.071200
     38 H11         47.7700   -38.1970   -65.7890 ha         1 8BN       0.152000
     39 H12         47.7800   -41.7190   -68.2660 ha         1 8BN       0.153000
     40 H13         41.4830   -40.4990   -72.3090 h1         1 8BN       0.042367
     41 H14         41.7430   -39.9630   -73.9830 h1         1 8BN       0.042367
     42 H15         42.6730   -39.2080   -72.6630 h1         1 8BN       0.042367
     43 H16         39.9360   -36.8330   -73.7310 h1         1 8BN       0.042367
     44 H17         41.2200   -37.6930   -74.6210 h1         1 8BN       0.042367
     45 H18         39.5600   -38.3580   -74.5900 h1         1 8BN       0.042367
     46 H19         37.8270   -41.3000   -67.4490 hn         1 8BN       0.358000
     47 F01         45.5170   -41.1830   -69.4540 f          1 8BN      -0.169000
@<TRIPOS>BOND
     1     1     8 1   
     2     1    23 1   
     3     1    24 2   
     4     2    10 ar  
     5     2    18 ar  
     6     2    47 1   
     7     3     9 1   
     8     3    12 1   
     9     3    28 1   
    10     3    29 1   
    11     4    15 ar  
    12     4    16 ar  
    13     4    30 1   
    14     5     6 ar  
    15     5    16 ar  
    16     5    31 1   
    17     6     7 ar  
    18     6    27 1   
    19     7    15 ar  
    20     7    24 1   
    21     8    32 1   
    22     8    33 1   
    23     8    34 1   
    24     9    10 1   
    25     9    27 1   
    26     9    35 1   
    27    10    11 ar  
    28    11    13 ar  
    29    11    14 1   
    30    12    14 1   
    31    12    36 1   
    32    12    37 1   
    33    13    19 ar  
    34    13    38 1   
    35    15    23 1   
    36    16    17 1   
    37    17    25 1   
    38    17    26 2   
    39    18    19 ar  
    40    18    39 1   
    41    19    22 1   
    42    20    25 1   
    43    20    40 1   
    44    20    41 1   
    45    20    42 1   
    46    21    25 1   
    47    21    43 1   
    48    21    44 1   
    49    21    45 1   
    50    23    46 1   
@<TRIPOS>SUBSTRUCTURE
     1 8BN         1 TEMP              0 ****  ****    0 ROOT
