@<TRIPOS>MOLECULE
8BN
   47    50     1     0     0
SMALL
bcc


@<TRIPOS>ATOM
      1 C10         39.7660   -41.3540   -66.5140 cc         1 8BN       0.409800
      2 C13         46.0320   -40.2220   -68.5860 ca         1 8BN       0.227900
      3 C15         43.8390   -37.1930   -68.2280 c6         1 8BN      -0.144400
      4 C02         39.2000   -39.7920   -69.6860 ca         1 8BN      -0.123000
      5 C04         41.5030   -39.0070   -69.8890 ca         1 8BN      -0.235000
      6 C05         41.8600   -39.5490   -68.6650 ca         1 8BN       0.201100
      7 C06         40.8730   -40.2370   -67.9460 ca         1 8BN       0.050400
      8 C07         39.3550   -42.1350   -65.3210 c3         1 8BN      -0.113400
      9 C09         44.0800   -38.6370   -68.6370 c6         1 8BN       0.215400
     10 C11         45.3850   -39.1070   -68.0730 ca         1 8BN      -0.244300
     11 C12         46.0060   -38.4360   -67.0160 ca         1 8BN       0.226100
     12 C14         44.1230   -37.0230   -66.7530 c6         1 8BN       0.139400
     13 C16         47.2410   -38.8640   -66.5230 ca         1 8BN      -0.238000
     14 O03         45.4750   -37.3530   -66.4380 os         1 8BN      -0.310900
     15 C01         39.5800   -40.3470   -68.4680 ca         1 8BN      -0.057200
     16 C03         40.1940   -39.1400   -70.3910 ca         1 8BN      -0.087600
     17 C08         39.8460   -38.4790   -71.6880 c          1 8BN       0.679700
     18 C17         47.2460   -40.6870   -68.1300 ca         1 8BN      -0.264000
     19 C18         47.8230   -39.9730   -67.0930 ca         1 8BN       0.210900
     20 C35         41.4260   -39.9750   -72.8710 c3         1 8BN       0.086300
     21 C36         40.4040   -38.0670   -74.0020 c3         1 8BN       0.086300
     22 F02         49.0040   -40.3900   -66.6240 f          1 8BN      -0.132900
     23 N01         38.9000   -41.0680   -67.5240 na         1 8BN      -0.262300
     24 N02         40.9590   -40.8700   -66.7320 nd         1 8BN      -0.548100
     25 N03         40.5990   -38.7910   -72.7630 n          1 8BN      -0.474800
     26 O02         38.9320   -37.6640   -71.7340 o          1 8BN      -0.594100
     27 O04         43.0790   -39.4990   -68.0970 os         1 8BN      -0.292900
     28 H1          44.4880   -36.5420   -68.8190 hc         1 8BN       0.071700
     29 H2          42.8120   -36.8890   -68.4370 hc         1 8BN       0.071700
     30 H3          38.1920   -39.8800   -70.0690 ha         1 8BN       0.151000
     31 H4          42.2230   -38.4640   -70.4870 ha         1 8BN       0.142000
     32 H5          40.1960   -42.2410   -64.6410 hc         1 8BN       0.060033
     33 H6          38.5380   -41.6450   -64.7900 hc         1 8BN       0.060033
     34 H7          39.0100   -43.1300   -65.6040 hc         1 8BN       0.060033
     35 H8          44.1060   -38.7180   -69.7270 h1         1 8BN       0.065700
     36 H9          43.9900   -35.9900   -66.4370 h1         1 8BN       0.071200
     37 H10         43.4530   -37.6500   -66.1560 h1         1 8BN       0.071200
     38 H11         47.7210   -38.3360   -65.7100 ha         1 8BN       0.170000
     39 H12         47.7200   -41.5590   -68.5580 ha         1 8BN       0.171000
     40 H13         41.3300   -40.6110   -71.9970 h1         1 8BN       0.042367
     41 H14         41.1150   -40.5560   -73.7420 h1         1 8BN       0.042367
     42 H15         42.4790   -39.7130   -72.9960 h1         1 8BN       0.042367
     43 H16         40.1060   -37.0400   -73.8100 h1         1 8BN       0.042367
     44 H17         41.3430   -38.0540   -74.5540 h1         1 8BN       0.042367
     45 H18         39.6460   -38.5390   -74.6320 h1         1 8BN       0.042367
     46 H19         37.9300   -41.3420   -67.5660 hn         1 8BN       0.307700
     47 F01         45.4420   -40.8760   -69.5930 f          1 8BN      -0.133900
@<TRIPOS>BOND
     1     1     8 1   
     2     1    23 1   
     3     1    24 2   
     4     2    10 ar  
     5     2    18 ar  
     6     2    47 1   
     7     3     9 1   
     8     3    12 1   
     9     3    28 1   
    10     3    29 1   
    11     4    15 ar  
    12     4    16 ar  
    13     4    30 1   
    14     5     6 ar  
    15     5    16 ar  
    16     5    31 1   
    17     6     7 ar  
    18     6    27 1   
    19     7    15 ar  
    20     7    24 1   
    21     8    32 1   
    22     8    33 1   
    23     8    34 1   
    24     9    10 1   
    25     9    27 1   
    26     9    35 1   
    27    10    11 ar  
    28    11    13 ar  
    29    11    14 1   
    30    12    14 1   
    31    12    36 1   
    32    12    37 1   
    33    13    19 ar  
    34    13    38 1   
    35    15    23 1   
    36    16    17 1   
    37    17    25 1   
    38    17    26 2   
    39    18    19 ar  
    40    18    39 1   
    41    19    22 1   
    42    20    25 1   
    43    20    40 1   
    44    20    41 1   
    45    20    42 1   
    46    21    25 1   
    47    21    43 1   
    48    21    44 1   
    49    21    45 1   
    50    23    46 1   
@<TRIPOS>SUBSTRUCTURE
     1 8BN         1 TEMP              0 ****  ****    0 ROOT
