@<TRIPOS>MOLECULE
8BO
   82    85     1     0     0
SMALL
No Charge or Current Charge


@<TRIPOS>ATOM
      1 O36        -10.4210    -3.3490     1.7760 oh         1 8BO      -0.534100
      2 C33         -9.5180    -2.5160     1.1870 ca         1 8BO       0.142100
      3 C32         -9.0270    -2.8180    -0.0920 ca         1 8BO      -0.179500
      4 C31         -8.0950    -1.9660    -0.7100 ca         1 8BO      -0.056000
      5 C34         -9.0790    -1.3610     1.8520 ca         1 8BO      -0.179500
      6 C35         -8.1460    -0.5070     1.2370 ca         1 8BO      -0.056000
      7 C30         -7.6470    -0.8050    -0.0490 ca         1 8BO      -0.161300
      8 C27         -6.6330     0.1180    -0.7280 c3         1 8BO       0.223600
      9 O28         -7.1660     1.4560    -0.7900 os         1 8BO      -0.453000
     10 C29         -8.3080     1.6240    -1.6490 c3         1 8BO       0.144900
     11 C26         -5.2920     0.1780     0.0430 c3         1 8BO      -0.068400
     12 C25         -4.1820     0.9670    -0.6920 c3         1 8BO      -0.072400
     13 C24         -2.8410     0.9840     0.0870 c3         1 8BO      -0.077400
     14 C21         -1.6230     1.6090    -0.6670 c3         1 8BO      -0.047700
     15 C22         -1.8640     3.1150    -0.9480 c3         1 8BO      -0.087100
     16 C20         -0.2700     1.3430     0.1400 c5         1 8BO      -0.053700
     17 C16          1.0910     1.8930    -0.4370 c5         1 8BO      -0.035000
     18 C23          1.3100     1.5280    -1.9440 c3         1 8BO      -0.079100
     19 C15          1.3970     3.4370    -0.2510 c6         1 8BO      -0.062400
     20 C14          2.9040     3.8460    -0.4980 c6         1 8BO      -0.071400
     21 C13          3.9020     2.9900     0.3330 c6         1 8BO      -0.042200
     22 C19          0.0480    -0.1950     0.3210 c5         1 8BO      -0.077400
     23 C18          1.6060    -0.3290     0.3940 c5         1 8BO      -0.071400
     24 C17          2.0590     1.1450     0.5720 c5         1 8BO      -0.036500
     25 C12          3.5710     1.4890     0.3320 c2         1 8BO      -0.079400
     26 C11          4.4670     0.4680     0.2330 ce         1 8BO      -0.190000
     27 C10          5.9310     0.6180     0.0930 ce         1 8BO      -0.160000
     28 C4           6.8270    -0.3650    -0.1850 c2         1 8BO      -0.107400
     29 C3           8.3230    -0.0710    -0.2790 c6         1 8BO      -0.032200
     30 C2           9.1750    -1.0090     0.6180 c6         1 8BO       0.212000
     31 O9           9.0180    -0.6770     1.9980 oh         1 8BO      -0.654000
     32 C5           6.5030    -1.8380    -0.4500 c6         1 8BO      -0.032200
     33 C6           7.2980    -2.7610     0.5050 c6         1 8BO       0.212000
     34 O8           7.0040    -4.1290     0.2100 oh         1 8BO      -0.654000
     35 C1           8.8070    -2.4780     0.4200 c2         1 8BO      -0.199400
     36 C7           9.7570    -3.4120     0.1950 c2         1 8BO      -0.298000
     37 H1         -10.6490    -2.9830     2.6570 ho         1 8BO       0.464000
     38 H2          -9.3690    -3.7120    -0.6070 ha         1 8BO       0.121000
     39 H3          -7.7220    -2.2110    -1.7030 ha         1 8BO       0.117500
     40 H4          -9.4550    -1.1180     2.8430 ha         1 8BO       0.121000
     41 H5          -7.8160     0.3900     1.7570 ha         1 8BO       0.117500
     42 H6          -6.4280    -0.2540    -1.7410 h1         1 8BO       0.034700
     43 H7          -8.6170     2.6770    -1.6690 h1         1 8BO       0.029367
     44 H8          -8.0710     1.3190    -2.6770 h1         1 8BO       0.029367
     45 H9          -9.1600     1.0290    -1.2970 h1         1 8BO       0.029367
     46 H10         -5.4570     0.6200     1.0330 hc         1 8BO       0.048200
     47 H11         -4.9450    -0.8490     0.2100 hc         1 8BO       0.048200
     48 H12         -4.0210     0.5220    -1.6820 hc         1 8BO       0.045200
     49 H13         -4.5350     1.9920    -0.8520 hc         1 8BO       0.045200
     50 H14         -2.9860     1.5100     1.0380 hc         1 8BO       0.037700
     51 H15         -2.6090    -0.0550     0.3440 hc         1 8BO       0.037700
     52 H16         -1.6140     1.1240    -1.6670 hc         1 8BO       0.046700
     53 H17         -1.7580     3.7100    -0.0320 hc         1 8BO       0.033033
     54 H18         -1.1580     3.4850    -1.6970 hc         1 8BO       0.033033
     55 H19         -2.8590     3.3040    -1.3630 hc         1 8BO       0.033033
     56 H20         -0.4370     1.7870     1.1300 hc         1 8BO       0.044700
     57 H21          0.7380     2.1960    -2.5980 hc         1 8BO       0.034033
     58 H22          2.3630     1.6110    -2.2340 hc         1 8BO       0.034033
     59 H23          0.9920     0.5080    -2.1850 hc         1 8BO       0.034033
     60 H24          0.7740     4.0440    -0.9170 hc         1 8BO       0.040200
     61 H25          1.1170     3.7370     0.7680 hc         1 8BO       0.040200
     62 H26          3.1400     3.7390    -1.5650 hc         1 8BO       0.039700
     63 H27          3.0440     4.9100    -0.2650 hc         1 8BO       0.039700
     64 H28          4.9120     3.1870    -0.0450 hc         1 8BO       0.046700
     65 H29          3.8920     3.3440     1.3730 hc         1 8BO       0.046700
     66 H30         -0.4240    -0.5860     1.2300 hc         1 8BO       0.040700
     67 H31         -0.3430    -0.7910    -0.5120 hc         1 8BO       0.040700
     68 H32          1.9220    -0.9630     1.2300 hc         1 8BO       0.044700
     69 H33          2.0000    -0.7820    -0.5220 hc         1 8BO       0.044700
     70 H34          1.8330     1.4530     1.6010 hc         1 8BO       0.052700
     71 H35          4.1170    -0.5570     0.2900 ha         1 8BO       0.172000
     72 H36          6.3230     1.6210     0.2520 ha         1 8BO       0.170000
     73 H37          8.6410    -0.1960    -1.3220 hc         1 8BO       0.058200
     74 H38          8.5380     0.9760    -0.0240 hc         1 8BO       0.058200
     75 H39         10.2290    -0.8650     0.3340 h1         1 8BO       0.042700
     76 H40          9.5070    -1.3670     2.4950 ho         1 8BO       0.441500
     77 H41          5.4350    -2.0590    -0.3610 hc         1 8BO       0.058200
     78 H42          6.7690    -2.0770    -1.4890 hc         1 8BO       0.058200
     79 H43          6.9680    -2.5360     1.5310 h1         1 8BO       0.042700
     80 H44          7.5160    -4.6570     0.8590 ho         1 8BO       0.441500
     81 H45          9.5290    -4.4660     0.0410 ha         1 8BO       0.167500
     82 H46         10.8140    -3.1480     0.1460 ha         1 8BO       0.167500
@<TRIPOS>BOND
     1     1     2 1   
     2     1    37 1   
     3     2     3 ar  
     4     2     5 ar  
     5     3     4 ar  
     6     3    38 1   
     7     4     7 ar  
     8     4    39 1   
     9     5     6 ar  
    10     5    40 1   
    11     6     7 ar  
    12     6    41 1   
    13     7     8 1   
    14     8     9 1   
    15     8    11 1   
    16     8    42 1   
    17     9    10 1   
    18    10    43 1   
    19    10    44 1   
    20    10    45 1   
    21    11    12 1   
    22    11    46 1   
    23    11    47 1   
    24    12    13 1   
    25    12    48 1   
    26    12    49 1   
    27    13    14 1   
    28    13    50 1   
    29    13    51 1   
    30    14    15 1   
    31    14    16 1   
    32    14    52 1   
    33    15    53 1   
    34    15    54 1   
    35    15    55 1   
    36    16    17 1   
    37    16    22 1   
    38    16    56 1   
    39    17    18 1   
    40    17    19 1   
    41    17    24 1   
    42    18    57 1   
    43    18    58 1   
    44    18    59 1   
    45    19    20 1   
    46    19    60 1   
    47    19    61 1   
    48    20    21 1   
    49    20    62 1   
    50    20    63 1   
    51    21    25 1   
    52    21    64 1   
    53    21    65 1   
    54    22    23 1   
    55    22    66 1   
    56    22    67 1   
    57    23    24 1   
    58    23    68 1   
    59    23    69 1   
    60    24    25 1   
    61    24    70 1   
    62    25    26 2   
    63    26    27 1   
    64    26    71 1   
    65    27    28 2   
    66    27    72 1   
    67    28    29 1   
    68    28    32 1   
    69    29    30 1   
    70    29    73 1   
    71    29    74 1   
    72    30    31 1   
    73    30    35 1   
    74    30    75 1   
    75    31    76 1   
    76    32    33 1   
    77    32    77 1   
    78    32    78 1   
    79    33    34 1   
    80    33    35 1   
    81    33    79 1   
    82    34    80 1   
    83    35    36 2   
    84    36    81 1   
    85    36    82 1   
@<TRIPOS>SUBSTRUCTURE
     1 8BO         1 TEMP              0 ****  ****    0 ROOT
