@<TRIPOS>MOLECULE
8BO
   82    85     1     0     0
SMALL
abcg2


@<TRIPOS>ATOM
      1 O36        -10.4690    -2.7810     1.9080 oh         1 8BO      -0.534100
      2 C33         -9.5130    -2.0910     1.2500 ca         1 8BO       0.142100
      3 C32         -8.7410    -2.7720     0.3140 ca         1 8BO      -0.179500
      4 C31         -7.7540    -2.0950    -0.3880 ca         1 8BO      -0.056000
      5 C34         -9.2810    -0.7350     1.4710 ca         1 8BO      -0.179500
      6 C35         -8.2870    -0.0770     0.7650 ca         1 8BO      -0.056000
      7 C30         -7.5060    -0.7440    -0.1740 ca         1 8BO      -0.161300
      8 C27         -6.4000    -0.0230    -0.9100 c3         1 8BO       0.223600
      9 O28         -6.8150     1.2410    -1.3740 os         1 8BO      -0.453000
     10 C29         -7.7660     1.1820    -2.4070 c3         1 8BO       0.144900
     11 C26         -5.1840     0.1800    -0.0130 c3         1 8BO      -0.068400
     12 C25         -4.0110     0.8680    -0.7020 c3         1 8BO      -0.072400
     13 C24         -2.7860     0.9480     0.2050 c3         1 8BO      -0.077400
     14 C21         -1.5430     1.5690    -0.4500 c3         1 8BO      -0.047700
     15 C22         -1.7800     3.0490    -0.7380 c3         1 8BO      -0.087100
     16 C20         -0.3060     1.3170     0.4240 c5         1 8BO      -0.053700
     17 C16          1.0690     1.8410    -0.0600 c5         1 8BO      -0.035000
     18 C23          1.2870     1.4980    -1.5350 c3         1 8BO      -0.079100
     19 C15          1.3640     3.3190     0.2110 c6         1 8BO      -0.062400
     20 C14          2.8380     3.6550    -0.0100 c6         1 8BO      -0.071400
     21 C13          3.7830     2.7430     0.7800 c6         1 8BO      -0.042200
     22 C19         -0.0590    -0.1980     0.6610 c5         1 8BO      -0.077400
     23 C18          1.4640    -0.4060     0.7580 c5         1 8BO      -0.071400
     24 C17          2.0130     1.0080     0.8470 c5         1 8BO      -0.036500
     25 C12          3.4580     1.2870     0.5770 c2         1 8BO      -0.079400
     26 C11          4.3320     0.3370     0.2080 ce         1 8BO      -0.190000
     27 C10          5.7350     0.5370    -0.1090 ce         1 8BO      -0.160000
     28 C4           6.6240    -0.4090    -0.4480 c2         1 8BO      -0.107400
     29 C3           8.0430    -0.0540    -0.7850 c6         1 8BO      -0.032200
     30 C2           9.0290    -0.8130     0.1020 c6         1 8BO       0.212000
     31 O9           8.8820    -0.3170     1.4190 oh         1 8BO      -0.654000
     32 C5           6.3440    -1.8830    -0.5130 c6         1 8BO      -0.032200
     33 C6           7.3100    -2.6540     0.3950 c6         1 8BO       0.212000
     34 O8           7.0260    -4.0240     0.2690 oh         1 8BO      -0.654000
     35 C1           8.7280    -2.2900     0.0290 c2         1 8BO      -0.199400
     36 C7           9.6370    -3.1680    -0.3790 c2         1 8BO      -0.298000
     37 H1         -10.9400    -2.2020     2.5170 ho         1 8BO       0.464000
     38 H2          -8.9210    -3.8240     0.1290 ha         1 8BO       0.121000
     39 H3          -7.1670    -2.6380    -1.1200 ha         1 8BO       0.117500
     40 H4          -9.8780    -0.1890     2.1940 ha         1 8BO       0.121000
     41 H5          -8.1280     0.9790     0.9490 ha         1 8BO       0.117500
     42 H6          -6.0920    -0.6470    -1.7660 h1         1 8BO       0.034700
     43 H7          -7.9660     2.2020    -2.7350 h1         1 8BO       0.029367
     44 H8          -7.3990     0.6100    -3.2670 h1         1 8BO       0.029367
     45 H9          -8.7110     0.7330    -2.0840 h1         1 8BO       0.029367
     46 H10         -5.4810     0.7480     0.8760 hc         1 8BO       0.048200
     47 H11         -4.8720    -0.8040     0.3470 hc         1 8BO       0.048200
     48 H12         -3.7450     0.3160    -1.6100 hc         1 8BO       0.045200
     49 H13         -4.3170     1.8640    -1.0260 hc         1 8BO       0.045200
     50 H14         -3.0350     1.5140     1.1110 hc         1 8BO       0.037700
     51 H15         -2.5550    -0.0670     0.5410 hc         1 8BO       0.037700
     52 H16         -1.3870     1.0540    -1.4080 hc         1 8BO       0.046700
     53 H17         -1.8020     3.6300     0.1870 hc         1 8BO       0.033033
     54 H18         -1.0040     3.4730    -1.3740 hc         1 8BO       0.033033
     55 H19         -2.7280     3.2100    -1.2510 hc         1 8BO       0.033033
     56 H20         -0.4980     1.7910     1.3980 hc         1 8BO       0.044700
     57 H21          0.6830     2.1380    -2.1810 hc         1 8BO       0.034033
     58 H22          2.3280     1.6230    -1.8370 hc         1 8BO       0.034033
     59 H23          1.0110     0.4670    -1.7580 hc         1 8BO       0.034033
     60 H24          0.7560     3.9740    -0.4140 hc         1 8BO       0.040200
     61 H25          1.0930     3.5420     1.2500 hc         1 8BO       0.040200
     62 H26          3.0810     3.5900    -1.0740 hc         1 8BO       0.039700
     63 H27          3.0220     4.6930     0.2770 hc         1 8BO       0.039700
     64 H28          4.8160     2.9790     0.5260 hc         1 8BO       0.046700
     65 H29          3.6680     2.9660     1.8480 hc         1 8BO       0.046700
     66 H30         -0.5650    -0.5370     1.5650 hc         1 8BO       0.040700
     67 H31         -0.4750    -0.7840    -0.1610 hc         1 8BO       0.040700
     68 H32          1.7530    -1.0140     1.6170 hc         1 8BO       0.044700
     69 H33          1.8380    -0.9190    -0.1300 hc         1 8BO       0.044700
     70 H34          1.8170     1.3670     1.8700 hc         1 8BO       0.052700
     71 H35          3.9570    -0.6770     0.1290 ha         1 8BO       0.172000
     72 H36          6.1010     1.5580    -0.0910 ha         1 8BO       0.170000
     73 H37          8.2570    -0.3340    -1.8230 hc         1 8BO       0.058200
     74 H38          8.2160     1.0210    -0.7000 hc         1 8BO       0.058200
     75 H39         10.0460    -0.6360    -0.2700 h1         1 8BO       0.042700
     76 H40          9.5110    -0.7780     1.9830 ho         1 8BO       0.441500
     77 H41          5.3200    -2.1240    -0.2280 hc         1 8BO       0.058200
     78 H42          6.4880    -2.2350    -1.5430 hc         1 8BO       0.058200
     79 H43          7.1290    -2.3170     1.4250 h1         1 8BO       0.042700
     80 H44          7.5100    -4.5000     0.9510 ho         1 8BO       0.441500
     81 H45          9.4290    -4.2260    -0.4730 ha         1 8BO       0.167500
     82 H46         10.6380    -2.8500    -0.6460 ha         1 8BO       0.167500
@<TRIPOS>BOND
     1     1     2 1   
     2     1    37 1   
     3     2     3 ar  
     4     2     5 ar  
     5     3     4 ar  
     6     3    38 1   
     7     4     7 ar  
     8     4    39 1   
     9     5     6 ar  
    10     5    40 1   
    11     6     7 ar  
    12     6    41 1   
    13     7     8 1   
    14     8     9 1   
    15     8    11 1   
    16     8    42 1   
    17     9    10 1   
    18    10    43 1   
    19    10    44 1   
    20    10    45 1   
    21    11    12 1   
    22    11    46 1   
    23    11    47 1   
    24    12    13 1   
    25    12    48 1   
    26    12    49 1   
    27    13    14 1   
    28    13    50 1   
    29    13    51 1   
    30    14    15 1   
    31    14    16 1   
    32    14    52 1   
    33    15    53 1   
    34    15    54 1   
    35    15    55 1   
    36    16    17 1   
    37    16    22 1   
    38    16    56 1   
    39    17    18 1   
    40    17    19 1   
    41    17    24 1   
    42    18    57 1   
    43    18    58 1   
    44    18    59 1   
    45    19    20 1   
    46    19    60 1   
    47    19    61 1   
    48    20    21 1   
    49    20    62 1   
    50    20    63 1   
    51    21    25 1   
    52    21    64 1   
    53    21    65 1   
    54    22    23 1   
    55    22    66 1   
    56    22    67 1   
    57    23    24 1   
    58    23    68 1   
    59    23    69 1   
    60    24    25 1   
    61    24    70 1   
    62    25    26 2   
    63    26    27 1   
    64    26    71 1   
    65    27    28 2   
    66    27    72 1   
    67    28    29 1   
    68    28    32 1   
    69    29    30 1   
    70    29    73 1   
    71    29    74 1   
    72    30    31 1   
    73    30    35 1   
    74    30    75 1   
    75    31    76 1   
    76    32    33 1   
    77    32    77 1   
    78    32    78 1   
    79    33    34 1   
    80    33    35 1   
    81    33    79 1   
    82    34    80 1   
    83    35    36 2   
    84    36    81 1   
    85    36    82 1   
@<TRIPOS>SUBSTRUCTURE
     1 8BO         1 TEMP              0 ****  ****    0 ROOT
