@<TRIPOS>MOLECULE
8BP
   56    59     1     0     0
SMALL
abcg2


@<TRIPOS>ATOM
      1 C5           1.5730    -0.9540     0.1490 c5         1 8BP       0.227800
      2 C6          -0.8660    -0.6090     0.0580 ca         1 8BP       0.448900
      3 C8          -1.5880     1.5760    -0.0070 ca         1 8BP       0.483900
      4 C10         -3.0460    -0.2870    -0.0510 ca         1 8BP       0.166500
      5 N12         -4.3880    -0.5130    -0.1110 na         1 8BP      -0.283300
      6 C13         -4.9810     0.7200    -0.1530 cc         1 8BP       0.391700
      7 C15         -5.0550    -1.8120    -0.1100 c3         1 8BP       0.092300
      8 C17         -5.8800    -1.9900     1.1570 c3         1 8BP      -0.106600
      9 C20          0.0550     4.9060    -0.1350 cc         1 8BP      -0.230000
     10 C24          2.0470     6.4120    -0.1360 c3         1 8BP       0.076900
     11 C28          6.1240    -2.2230     0.5300 c3         1 8BP      -0.155400
     12 C1           2.3830    -2.2330    -0.0690 c5         1 8BP       0.057700
     13 C2           1.4980    -3.2920     0.5700 c5         1 8BP       0.158300
     14 C3           0.0910    -2.8710     0.1780 c5         1 8BP       0.216800
     15 N4           0.2060    -1.4290     0.1180 nh         1 8BP      -0.791300
     16 N7          -0.5900     0.7090     0.0600 nb         1 8BP      -0.338000
     17 C9          -2.9090     1.0930    -0.0620 ca         1 8BP      -0.140600
     18 N11         -2.0660    -1.1830     0.0030 nb         1 8BP      -0.291000
     19 N14         -4.1330     1.7060    -0.1270 nd         1 8BP      -0.550100
     20 C16         -5.8840    -1.9940    -1.3730 c3         1 8BP      -0.106600
     21 N18         -1.3480     2.9010    -0.0180 nu         1 8BP      -0.890900
     22 C19         -0.1160     3.5440     0.0140 cd         1 8BP       0.182000
     23 N21          1.3770     5.1380    -0.0290 na         1 8BP       0.141800
     24 N22          2.0700     4.0320     0.1730 nc         1 8BP      -0.522800
     25 C23          1.1870     3.0460     0.2050 cd         1 8BP       0.248900
     26 F25          1.8030    -4.5640     0.1170 f          1 8BP      -0.247000
     27 N26          3.7130    -2.1660     0.4660 ns         1 8BP      -0.502900
     28 C27          4.8380    -2.3080    -0.2640 c          1 8BP       0.606100
     29 C29          7.2380    -1.5230    -0.2320 c3         1 8BP      -0.079100
     30 O30          4.8300    -2.5060    -1.4700 o          1 8BP      -0.591100
     31 H1           1.8220    -0.4970     1.1140 h1         1 8BP       0.063200
     32 H2           1.7690    -0.2150    -0.6280 h1         1 8BP       0.063200
     33 H3          -6.0540     0.8310    -0.2030 h5         1 8BP       0.063800
     34 H4          -4.2480    -2.5460    -0.1110 h1         1 8BP       0.089700
     35 H5          -6.6950    -1.2670     1.2100 hc         1 8BP       0.046367
     36 H6          -6.3200    -2.9870     1.1740 hc         1 8BP       0.046367
     37 H7          -5.2630    -1.8790     2.0490 hc         1 8BP       0.046367
     38 H8          -0.6600     5.6950    -0.3020 h4         1 8BP       0.156000
     39 H9           2.6410     6.6010     0.7560 h1         1 8BP       0.056033
     40 H10          2.6980     6.4280    -1.0090 h1         1 8BP       0.056033
     41 H11          1.3030     7.1960    -0.2370 h1         1 8BP       0.056033
     42 H12          5.9500    -1.7290     1.4880 hc         1 8BP       0.056200
     43 H13          6.4260    -3.2480     0.7680 hc         1 8BP       0.056200
     44 H14          2.4590    -2.4390    -1.1380 h1         1 8BP       0.111700
     45 H15          1.6200    -3.2900     1.6570 h1         1 8BP       0.058700
     46 H16         -0.1810    -3.3040    -0.7910 h1         1 8BP       0.071200
     47 H17         -0.6580    -3.1860     0.9060 h1         1 8BP       0.071200
     48 H18         -5.2720    -1.8800    -2.2670 hc         1 8BP       0.046367
     49 H19         -6.3180    -2.9940    -1.3860 hc         1 8BP       0.046367
     50 H20         -6.7060    -1.2780    -1.4230 hc         1 8BP       0.046367
     51 H21         -2.1590     3.4950    -0.0850 hn         1 8BP       0.521000
     52 H22          1.5000     2.0300     0.3640 h4         1 8BP       0.058100
     53 H23          3.8060    -1.9780     1.4520 hn         1 8BP       0.310500
     54 H24          7.4770    -2.0420    -1.1590 hc         1 8BP       0.043700
     55 H25          6.9660    -0.4970    -0.4810 hc         1 8BP       0.043700
     56 H26          8.1440    -1.4880     0.3720 hc         1 8BP       0.043700
@<TRIPOS>BOND
     1     1    12 1   
     2     1    15 1   
     3     1    31 1   
     4     1    32 1   
     5     2    15 1   
     6     2    16 ar  
     7     2    18 ar  
     8     3    16 ar  
     9     3    17 ar  
    10     3    21 1   
    11     4     5 1   
    12     4    17 ar  
    13     4    18 ar  
    14     5     6 1   
    15     5     7 1   
    16     6    19 2   
    17     6    33 1   
    18     7     8 1   
    19     7    20 1   
    20     7    34 1   
    21     8    35 1   
    22     8    36 1   
    23     8    37 1   
    24     9    22 2   
    25     9    23 1   
    26     9    38 1   
    27    10    23 1   
    28    10    39 1   
    29    10    40 1   
    30    10    41 1   
    31    11    28 1   
    32    11    29 1   
    33    11    42 1   
    34    11    43 1   
    35    12    13 1   
    36    12    27 1   
    37    12    44 1   
    38    13    14 1   
    39    13    26 1   
    40    13    45 1   
    41    14    15 1   
    42    14    46 1   
    43    14    47 1   
    44    17    19 1   
    45    20    48 1   
    46    20    49 1   
    47    20    50 1   
    48    21    22 1   
    49    21    51 1   
    50    22    25 1   
    51    23    24 1   
    52    24    25 2   
    53    25    52 1   
    54    27    28 1   
    55    27    53 1   
    56    28    30 2   
    57    29    54 1   
    58    29    55 1   
    59    29    56 1   
@<TRIPOS>SUBSTRUCTURE
     1 8BP         1 TEMP              0 ****  ****    0 ROOT
