@<TRIPOS>MOLECULE
8BP
   56    59     1     0     0
SMALL
No Charge or Current Charge


@<TRIPOS>ATOM
      1 C5           1.7510    -0.9820     0.0980 c5         1 8BP       0.227800
      2 C6          -0.7750    -0.5470     0.0390 ca         1 8BP       0.448900
      3 C8          -1.5500     1.6050    -0.0440 ca         1 8BP       0.483900
      4 C10         -3.0390    -0.2550    -0.0520 ca         1 8BP       0.166500
      5 N12         -4.3920    -0.4350    -0.0980 na         1 8BP      -0.283300
      6 C13         -5.0020     0.8210    -0.1520 cc         1 8BP       0.391700
      7 C15         -5.0320    -1.7640    -0.0870 c3         1 8BP       0.092300
      8 C17         -5.9070    -1.9580     1.1680 c3         1 8BP      -0.106600
      9 C20         -0.2140     5.1310    -0.0850 cc         1 8BP      -0.230000
     10 C24          1.6760     6.8470    -0.0530 c3         1 8BP       0.076900
     11 C28          6.2090    -2.7750     0.5510 c3         1 8BP      -0.155400
     12 C1           2.4830    -2.3150    -0.2300 c5         1 8BP       0.057700
     13 C2           1.6540    -3.3380     0.5940 c5         1 8BP       0.158300
     14 C3           0.2080    -2.9120     0.2080 c5         1 8BP       0.216800
     15 N4           0.3270    -1.4250     0.1010 nh         1 8BP      -0.791300
     16 N7          -0.4980     0.7740     0.0160 nb         1 8BP      -0.338000
     17 C9          -2.8650     1.1040    -0.0800 ca         1 8BP      -0.140600
     18 N11         -2.0040    -1.1110     0.0080 nb         1 8BP      -0.291000
     19 N14         -4.0800     1.8030    -0.1430 nd         1 8BP      -0.550100
     20 C16         -5.8260    -2.0180    -1.3860 c3         1 8BP      -0.106600
     21 N18         -1.3260     2.9770    -0.0700 nu         1 8BP      -0.890900
     22 C19         -0.1990     3.7730    -0.0450 cd         1 8BP       0.182000
     23 N21          1.1340     5.4810    -0.0360 na         1 8BP       0.141800
     24 N22          1.9950     4.4010     0.0340 nc         1 8BP      -0.522800
     25 C23          1.1650     3.3700     0.0280 cd         1 8BP       0.248900
     26 F25          1.9270    -4.6550     0.2090 f          1 8BP      -0.247000
     27 N26          3.8190    -2.2370     0.4050 ns         1 8BP      -0.502900
     28 C27          4.8820    -2.8720    -0.2090 c          1 8BP       0.606100
     29 C29          7.1900    -1.7990    -0.1350 c3         1 8BP      -0.079100
     30 O30          4.7780    -3.4850    -1.2620 o          1 8BP      -0.591100
     31 H1           2.0360    -0.5810     1.0810 h1         1 8BP       0.063200
     32 H2           1.9600    -0.2190    -0.6650 h1         1 8BP       0.063200
     33 H3          -6.0780     0.9470    -0.1950 h5         1 8BP       0.063800
     34 H4          -4.2380    -2.5220    -0.0450 h1         1 8BP       0.089700
     35 H5          -6.7400    -1.2450     1.1820 hc         1 8BP       0.046367
     36 H6          -6.3220    -2.9720     1.1960 hc         1 8BP       0.046367
     37 H7          -5.3110    -1.8100     2.0770 hc         1 8BP       0.046367
     38 H8          -1.0210     5.8490    -0.1420 h4         1 8BP       0.156000
     39 H9           2.2510     7.0240     0.8630 h1         1 8BP       0.056033
     40 H10          2.3300     6.9710    -0.9240 h1         1 8BP       0.056033
     41 H11          0.8550     7.5710    -0.1110 h1         1 8BP       0.056033
     42 H12          6.0350    -2.4220     1.5750 hc         1 8BP       0.056200
     43 H13          6.6750    -3.7670     0.5760 hc         1 8BP       0.056200
     44 H14          2.4770    -2.5330    -1.3070 h1         1 8BP       0.111700
     45 H15          1.8250    -3.2390     1.6740 h1         1 8BP       0.058700
     46 H16         -0.0970    -3.3580    -0.7490 h1         1 8BP       0.071200
     47 H17         -0.5090    -3.2230     0.9810 h1         1 8BP       0.071200
     48 H18         -5.1740    -1.9110    -2.2610 hc         1 8BP       0.046367
     49 H19         -6.2390    -3.0330    -1.3930 hc         1 8BP       0.046367
     50 H20         -6.6560    -1.3080    -1.4850 hc         1 8BP       0.046367
     51 H21         -2.2080     3.4900    -0.1190 hn         1 8BP       0.521000
     52 H22          1.5720     2.3690     0.0760 h4         1 8BP       0.058100
     53 H23          4.0080    -1.7640     1.2820 hn         1 8BP       0.310500
     54 H24          7.4170    -2.1280    -1.1570 hc         1 8BP       0.043700
     55 H25          6.7620    -0.7900    -0.1850 hc         1 8BP       0.043700
     56 H26          8.1320    -1.7450     0.4240 hc         1 8BP       0.043700
@<TRIPOS>BOND
     1     1    12 1   
     2     1    15 1   
     3     1    31 1   
     4     1    32 1   
     5     2    15 1   
     6     2    16 ar  
     7     2    18 ar  
     8     3    16 ar  
     9     3    17 ar  
    10     3    21 1   
    11     4     5 1   
    12     4    17 ar  
    13     4    18 ar  
    14     5     6 1   
    15     5     7 1   
    16     6    19 2   
    17     6    33 1   
    18     7     8 1   
    19     7    20 1   
    20     7    34 1   
    21     8    35 1   
    22     8    36 1   
    23     8    37 1   
    24     9    22 2   
    25     9    23 1   
    26     9    38 1   
    27    10    23 1   
    28    10    39 1   
    29    10    40 1   
    30    10    41 1   
    31    11    28 1   
    32    11    29 1   
    33    11    42 1   
    34    11    43 1   
    35    12    13 1   
    36    12    27 1   
    37    12    44 1   
    38    13    14 1   
    39    13    26 1   
    40    13    45 1   
    41    14    15 1   
    42    14    46 1   
    43    14    47 1   
    44    17    19 1   
    45    20    48 1   
    46    20    49 1   
    47    20    50 1   
    48    21    22 1   
    49    21    51 1   
    50    22    25 1   
    51    23    24 1   
    52    24    25 2   
    53    25    52 1   
    54    27    28 1   
    55    27    53 1   
    56    28    30 2   
    57    29    54 1   
    58    29    55 1   
    59    29    56 1   
@<TRIPOS>SUBSTRUCTURE
     1 8BP         1 TEMP              0 ****  ****    0 ROOT
