@<TRIPOS>MOLECULE
8BQ
   41    44     1     0     0
SMALL
abcg2


@<TRIPOS>ATOM
      1 F01          4.5690    -2.3580     2.0730 f          1 8BQ      -0.177000
      2 C02          4.4630    -1.7440     0.8860 ca         1 8BQ       0.158000
      3 C03          5.4040    -2.0090    -0.0900 ca         1 8BQ      -0.127000
      4 C04          5.2800    -1.3670    -1.3140 ca         1 8BQ      -0.097000
      5 C05          4.2390    -0.4820    -1.5440 ca         1 8BQ      -0.074000
      6 C06          3.2970    -0.2270    -0.5470 ca         1 8BQ      -0.147600
      7 C07          3.4140    -0.8700     0.6850 ca         1 8BQ      -0.122000
      8 C08          2.1890     0.7360    -0.8410 c          1 8BQ       0.593700
      9 O09          2.1170     1.2480    -1.9350 o          1 8BQ      -0.504100
     10 C10          1.2150     1.0640     0.2710 c5         1 8BQ      -0.159700
     11 C11          1.8700     2.0590     1.2570 c5         1 8BQ       0.156800
     12 N12          1.4100     3.3400     0.7640 n7         1 8BQ      -0.851400
     13 C13         -0.0060     3.1520     0.5220 c5         1 8BQ       0.156800
     14 C14         -0.0520     1.8060    -0.2220 c5         1 8BQ      -0.024400
     15 C15         -1.3240     1.0380     0.0010 ca         1 8BQ      -0.041300
     16 C16         -2.1570     0.7460    -1.0600 ca         1 8BQ      -0.094000
     17 C17         -3.3460     0.0280    -0.8760 ca         1 8BQ       0.183400
     18 C18         -3.6890    -0.4000     0.4150 ca         1 8BQ      -0.203600
     19 C19         -2.8480    -0.1040     1.4930 ca         1 8BQ      -0.041000
     20 C20         -1.6860     0.6010     1.2890 ca         1 8BQ      -0.134000
     21 C21         -4.9210    -1.1510     0.6160 c          1 8BQ       0.575600
     22 O22         -5.3310    -1.5740     1.6820 o          1 8BQ      -0.534000
     23 N23         -5.6170    -1.3570    -0.5560 ns         1 8BQ      -0.431400
     24 C24         -5.2080    -0.9030    -1.7680 cc         1 8BQ       0.501800
     25 N25         -4.1330    -0.2370    -1.9750 nd         1 8BQ      -0.619100
     26 H10          0.9480     0.1440     0.7910 hc         1 8BQ       0.074700
     27 H20         -1.0460     0.8210     2.1350 ha         1 8BQ       0.116000
     28 H11          1.5190     1.8260     2.2730 h1         1 8BQ       0.041700
     29 H11A         2.9610     2.0100     1.2740 h1         1 8BQ       0.041700
     30 HN12         1.5860     4.0820     1.4280 hn         1 8BQ       0.420000
     31 H03          6.2140    -2.7010     0.1010 ha         1 8BQ       0.134000
     32 H13         -0.5960     3.0950     1.4490 h1         1 8BQ       0.042700
     33 HN23        -6.4830    -1.8780    -0.5060 hn         1 8BQ       0.331500
     34 H13A        -0.4230     3.9620    -0.0780 h1         1 8BQ       0.042700
     35 H04          6.0040    -1.5610    -2.0930 ha         1 8BQ       0.123000
     36 H14          0.0460     2.0010    -1.2900 hc         1 8BQ       0.094700
     37 H24         -5.8660    -1.1440    -2.5930 h5         1 8BQ       0.047800
     38 H05          4.1580     0.0110    -2.5020 ha         1 8BQ       0.140000
     39 H16         -1.8980     1.0650    -2.0630 ha         1 8BQ       0.139000
     40 H07          2.7100    -0.7080     1.4900 ha         1 8BQ       0.131000
     41 H19         -3.1160    -0.4340     2.4880 ha         1 8BQ       0.136000
@<TRIPOS>BOND
     1     1     2 1   
     2     2     3 ar  
     3     2     7 ar  
     4     3     4 ar  
     5     3    31 1   
     6     4     5 ar  
     7     4    35 1   
     8     5     6 ar  
     9     5    38 1   
    10     6     7 ar  
    11     6     8 1   
    12     7    40 1   
    13     8     9 2   
    14     8    10 1   
    15    10    11 1   
    16    10    14 1   
    17    10    26 1   
    18    11    12 1   
    19    11    28 1   
    20    11    29 1   
    21    12    13 1   
    22    12    30 1   
    23    13    14 1   
    24    13    32 1   
    25    13    34 1   
    26    14    15 1   
    27    14    36 1   
    28    15    16 ar  
    29    15    20 ar  
    30    16    17 ar  
    31    16    39 1   
    32    17    18 ar  
    33    17    25 1   
    34    18    19 ar  
    35    18    21 1   
    36    19    20 ar  
    37    19    41 1   
    38    20    27 1   
    39    21    22 2   
    40    21    23 1   
    41    23    24 1   
    42    23    33 1   
    43    24    25 2   
    44    24    37 1   
@<TRIPOS>SUBSTRUCTURE
     1 8BQ         1 TEMP              0 ****  ****    0 ROOT
