@<TRIPOS>MOLECULE
8BQ
   41    44     1     0     0
SMALL
No Charge or Current Charge


@<TRIPOS>ATOM
      1 F01          4.5140    -2.3560     2.0960 f          1 8BQ      -0.177000
      2 C02          4.2340    -1.8340     0.8820 ca         1 8BQ       0.158000
      3 C03          4.6520    -2.5050    -0.2770 ca         1 8BQ      -0.127000
      4 C04          4.3730    -1.9540    -1.5380 ca         1 8BQ      -0.097000
      5 C05          3.6720    -0.7390    -1.6370 ca         1 8BQ      -0.074000
      6 C06          3.2300    -0.0630    -0.4780 ca         1 8BQ      -0.147600
      7 C07          3.5330    -0.6210     0.7900 ca         1 8BQ      -0.122000
      8 C08          2.4910     1.2530    -0.6330 c          1 8BQ       0.593700
      9 O09          2.8050     2.0680    -1.4950 o          1 8BQ      -0.504100
     10 C10          1.3410     1.4020     0.4060 c5         1 8BQ      -0.159700
     11 C11          1.7770     2.4500     1.4690 c5         1 8BQ       0.156800
     12 N12          1.2290     3.7200     0.9580 n7         1 8BQ      -0.851400
     13 C13         -0.1450     3.3630     0.5570 c5         1 8BQ       0.156800
     14 C14          0.0640     2.0490    -0.2550 c5         1 8BQ      -0.024400
     15 C15         -1.1490     1.1350    -0.0170 ca         1 8BQ      -0.041300
     16 C16         -1.9290     0.7230    -1.1160 ca         1 8BQ      -0.094000
     17 C17         -3.0480    -0.1160    -0.9590 ca         1 8BQ       0.183400
     18 C18         -3.3910    -0.5540     0.3340 ca         1 8BQ      -0.203600
     19 C19         -2.6230    -0.1550     1.4450 ca         1 8BQ      -0.041000
     20 C20         -1.5120     0.6830     1.2700 ca         1 8BQ      -0.134000
     21 C21         -4.5710    -1.4390     0.4950 c          1 8BQ       0.575600
     22 O22         -4.9590    -1.8780     1.5670 o          1 8BQ      -0.534000
     23 N23         -5.1980    -1.7290    -0.6660 ns         1 8BQ      -0.431400
     24 C24         -4.8100    -1.2670    -1.8970 cc         1 8BQ       0.501800
     25 N25         -3.7620    -0.4700    -2.1190 nd         1 8BQ      -0.619100
     26 H10          1.1490     0.4370     0.8850 hc         1 8BQ       0.074700
     27 H20         -0.9320     0.9770     2.1410 ha         1 8BQ       0.116000
     28 H11          1.3300     2.2110     2.4450 h1         1 8BQ       0.041700
     29 H11A         2.8670     2.4960     1.6060 h1         1 8BQ       0.041700
     30 HN12         1.2150     4.4330     1.7000 hn         1 8BQ       0.420000
     31 H03          5.1940    -3.4430    -0.1950 ha         1 8BQ       0.134000
     32 H13         -0.7690     3.2070     1.4490 h1         1 8BQ       0.042700
     33 HN23        -6.0070    -2.3290    -0.6020 hn         1 8BQ       0.331500
     34 H13A        -0.6170     4.1520    -0.0450 h1         1 8BQ       0.042700
     35 H04          4.7010    -2.4670    -2.4400 ha         1 8BQ       0.123000
     36 H14          0.2130     2.2780    -1.3170 hc         1 8BQ       0.094700
     37 H24         -5.4520    -1.6210    -2.6940 h5         1 8BQ       0.047800
     38 H05          3.4650    -0.3240    -2.6230 ha         1 8BQ       0.140000
     39 H16         -1.6660     1.0590    -2.1160 ha         1 8BQ       0.139000
     40 H07          3.2440    -0.1180     1.7090 ha         1 8BQ       0.131000
     41 H19         -2.8860    -0.4920     2.4470 ha         1 8BQ       0.136000
@<TRIPOS>BOND
     1     1     2 1   
     2     2     3 ar  
     3     2     7 ar  
     4     3     4 ar  
     5     3    31 1   
     6     4     5 ar  
     7     4    35 1   
     8     5     6 ar  
     9     5    38 1   
    10     6     7 ar  
    11     6     8 1   
    12     7    40 1   
    13     8     9 2   
    14     8    10 1   
    15    10    11 1   
    16    10    14 1   
    17    10    26 1   
    18    11    12 1   
    19    11    28 1   
    20    11    29 1   
    21    12    13 1   
    22    12    30 1   
    23    13    14 1   
    24    13    32 1   
    25    13    34 1   
    26    14    15 1   
    27    14    36 1   
    28    15    16 ar  
    29    15    20 ar  
    30    16    17 ar  
    31    16    39 1   
    32    17    18 ar  
    33    17    25 1   
    34    18    19 ar  
    35    18    21 1   
    36    19    20 ar  
    37    19    41 1   
    38    20    27 1   
    39    21    22 2   
    40    21    23 1   
    41    23    24 1   
    42    23    33 1   
    43    24    25 2   
    44    24    37 1   
@<TRIPOS>SUBSTRUCTURE
     1 8BQ         1 TEMP              0 ****  ****    0 ROOT
