@<TRIPOS>MOLECULE
8BS
   54    57     1     0     0
SMALL
abcg2


@<TRIPOS>ATOM
      1 C5         -14.8950    16.6370   -25.6570 c5         1 8BS       0.229800
      2 C6         -13.1940    15.7230   -27.2100 ca         1 8BS       0.448900
      3 C8         -13.4560    13.4990   -27.8110 ca         1 8BS       0.479900
      4 C10        -11.7320    14.8930   -28.6700 ca         1 8BS       0.169500
      5 N12        -10.6810    14.7800   -29.5470 na         1 8BS      -0.295300
      6 C13        -10.7060    13.4860   -30.0190 cc         1 8BS       0.388700
      7 C15         -9.7290    15.8190   -29.9040 c3         1 8BS       0.070900
      8 C17        -15.1980    12.0100   -26.9030 cc         1 8BS       0.152000
      9 C21        -15.8660    10.7640   -26.9290 cc         1 8BS       0.460300
     10 C1         -15.0470    18.0310   -25.0260 c5         1 8BS       0.075700
     11 C2         -14.2900    18.9460   -25.9900 c5         1 8BS       0.156300
     12 C3         -13.1460    18.0980   -26.5090 c5         1 8BS       0.214800
     13 N4         -13.6840    16.7470   -26.4690 nh         1 8BS      -0.795300
     14 N7         -13.8660    14.5500   -27.0980 nb         1 8BS      -0.345000
     15 C9         -12.3410    13.6390   -28.6620 ca         1 8BS      -0.136600
     16 N11        -12.1070    15.9640   -27.9630 nb         1 8BS      -0.297000
     17 N14        -11.6870    12.7720   -29.5200 nd         1 8BS      -0.539100
     18 N16        -14.1090    12.3180   -27.7140 nu         1 8BS      -0.879900
     19 C18        -15.8600    12.7290   -25.9200 cd         1 8BS      -0.133000
     20 N19        -16.8310    11.9220   -25.4320 na         1 8BS       0.109800
     21 N20        -16.8510    10.7110   -26.0450 nd         1 8BS      -0.580800
     22 O22        -15.5240     9.7610   -27.7610 os         1 8BS      -0.458300
     23 C23        -16.3010     8.5590   -27.6660 c3         1 8BS       0.158900
     24 F25        -15.1580    19.2440   -27.0620 f          1 8BS      -0.256000
     25 N26        -14.4600    18.1260   -23.7010 ns         1 8BS      -0.516900
     26 C27        -15.1080    17.6830   -22.5990 c          1 8BS       0.595100
     27 C29        -14.9300    17.0660   -20.1400 c3         1 8BS      -0.076100
     28 O30        -16.2320    17.1890   -22.6640 o          1 8BS      -0.603100
     29 H1         -15.7580    16.3860   -26.2780 h1         1 8BS       0.070700
     30 H2         -14.7950    15.8710   -24.8890 h1         1 8BS       0.070700
     31 H3          -9.9700    13.1380   -30.7280 h5         1 8BS       0.064800
     32 H4          -9.9980    16.7230   -29.3650 h1         1 8BS       0.055367
     33 H5          -8.7190    15.5190   -29.6250 h1         1 8BS       0.055367
     34 H6          -9.7680    16.0140   -30.9760 h1         1 8BS       0.055367
     35 H7         -18.4290    11.3690   -24.2570 h1         1 8BS       0.057367
     36 H8         -17.3180    12.5190   -23.4840 h1         1 8BS       0.057367
     37 H9         -18.4440    13.0750   -24.7440 h1         1 8BS       0.057367
     38 H10        -13.3080    17.6650   -21.4470 hc         1 8BS       0.056200
     39 H11        -14.4180    18.9570   -21.0560 hc         1 8BS       0.056200
     40 H12        -16.0920    18.3240   -24.9650 h1         1 8BS       0.103700
     41 H13        -13.9820    19.8920   -25.5510 h1         1 8BS       0.075700
     42 H14        -12.2720    18.2070   -25.8560 h1         1 8BS       0.068700
     43 H15        -12.8530    18.3880   -27.5160 h1         1 8BS       0.068700
     44 H16        -13.7520    11.5640   -28.2810 hn         1 8BS       0.535000
     45 H17        -15.7080    13.7270   -25.5580 h4         1 8BS       0.179000
     46 H18        -15.8800     7.8770   -28.3990 h1         1 8BS       0.046367
     47 H19        -16.2270     8.1330   -26.6670 h1         1 8BS       0.046367
     48 H20        -17.3480     8.7620   -27.8980 h1         1 8BS       0.046367
     49 H21        -13.5170    18.4690   -23.5980 hn         1 8BS       0.315500
     50 H22        -14.3770    17.2770   -19.2230 hc         1 8BS       0.044700
     51 H23        -15.9800    17.3020   -19.9690 hc         1 8BS       0.044700
     52 H24        -14.8530    15.9980   -20.3460 hc         1 8BS       0.044700
     53 C24        -17.8110    12.2480   -24.4180 c3         1 8BS       0.081900
     54 C28        -14.3660    17.8890   -21.2910 c3         1 8BS      -0.153400
@<TRIPOS>BOND
     1     1    10 1   
     2     1    13 1   
     3     1    29 1   
     4     1    30 1   
     5     2    13 1   
     6     2    14 ar  
     7     2    16 ar  
     8     3    14 ar  
     9     3    15 ar  
    10     3    18 1   
    11     4     5 1   
    12     4    15 ar  
    13     4    16 ar  
    14     5     6 1   
    15     5     7 1   
    16     6    17 2   
    17     6    31 1   
    18     7    32 1   
    19     7    33 1   
    20     7    34 1   
    21     8     9 1   
    22     8    18 1   
    23     8    19 2   
    24     9    21 2   
    25     9    22 1   
    26    10    11 1   
    27    10    25 1   
    28    10    40 1   
    29    11    12 1   
    30    11    24 1   
    31    11    41 1   
    32    12    13 1   
    33    12    42 1   
    34    12    43 1   
    35    15    17 1   
    36    18    44 1   
    37    19    20 1   
    38    19    45 1   
    39    20    21 1   
    40    20    53 1   
    41    22    23 1   
    42    23    46 1   
    43    23    47 1   
    44    23    48 1   
    45    25    26 1   
    46    25    49 1   
    47    26    28 2   
    48    26    54 1   
    49    27    50 1   
    50    27    51 1   
    51    27    52 1   
    52    27    54 1   
    53    35    53 1   
    54    36    53 1   
    55    37    53 1   
    56    38    54 1   
    57    39    54 1   
@<TRIPOS>SUBSTRUCTURE
     1 8BS         1 TEMP              0 ****  ****    0 ROOT
