@<TRIPOS>MOLECULE
8BS
   54    57     1     0     0
SMALL
No Charge or Current Charge


@<TRIPOS>ATOM
      1 C5         -15.3640    17.1530   -25.8450 c5         1 8BS       0.229800
      2 C6         -13.4850    15.9690   -27.1300 ca         1 8BS       0.448900
      3 C8         -13.6230    13.7160   -27.5120 ca         1 8BS       0.479900
      4 C10        -11.7600    14.9930   -28.2620 ca         1 8BS       0.169500
      5 N12        -10.6020    14.7410   -28.9370 na         1 8BS      -0.295300
      6 C13        -10.5490    13.3790   -29.2390 cc         1 8BS       0.388700
      7 C15         -9.6210    15.7900   -29.2550 c3         1 8BS       0.070900
      8 C17        -15.4640    12.1080   -26.7420 cc         1 8BS       0.152000
      9 C21        -15.9130    10.7680   -26.6240 cc         1 8BS       0.460300
     10 C1         -15.3130    18.5110   -25.0720 c5         1 8BS       0.075700
     11 C2         -14.5380    19.4340   -26.0590 c5         1 8BS       0.156300
     12 C3         -13.4440    18.4900   -26.6590 c5         1 8BS       0.214800
     13 N4         -14.0630    17.1310   -26.5790 nh         1 8BS      -0.795300
     14 N7         -14.1800    14.8200   -26.9880 nb         1 8BS      -0.345000
     15 C9         -12.3820    13.7760   -28.1710 ca         1 8BS      -0.136600
     16 N11        -12.2900    16.1150   -27.7470 nb         1 8BS      -0.297000
     17 N14        -11.6440    12.7470   -28.7750 nd         1 8BS      -0.539100
     18 N16        -14.2930    12.5070   -27.3860 nu         1 8BS      -0.879900
     19 C18        -16.4280    12.8410   -26.1200 cd         1 8BS      -0.133000
     20 N19        -17.3760    11.9030   -25.6680 na         1 8BS       0.109800
     21 N20        -17.0500    10.5870   -25.9890 nd         1 8BS      -0.580800
     22 O22        -15.2100     9.7040   -27.1410 os         1 8BS      -0.458300
     23 C23        -15.7040     8.3570   -27.0010 c3         1 8BS       0.158900
     24 F25        -15.3980    19.9010   -27.0630 f          1 8BS      -0.256000
     25 N26        -14.4260    18.3080   -23.8970 ns         1 8BS      -0.516900
     26 C27        -14.9570    17.7080   -22.7740 c          1 8BS       0.595100
     27 C29        -13.5920    15.9450   -21.5540 c3         1 8BS      -0.076100
     28 O30        -16.1440    17.4300   -22.6670 o          1 8BS      -0.603100
     29 H1         -16.2080    17.1370   -26.5490 h1         1 8BS       0.070700
     30 H2         -15.4820    16.3020   -25.1590 h1         1 8BS       0.070700
     31 H3          -9.7210    12.9300   -29.7760 h5         1 8BS       0.064800
     32 H4          -9.2520    16.2450   -28.3270 h1         1 8BS       0.055367
     33 H5          -8.7760    15.3570   -29.8050 h1         1 8BS       0.055367
     34 H6         -10.0950    16.5640   -29.8730 h1         1 8BS       0.055367
     35 H7         -18.5870    11.7050   -23.9540 h1         1 8BS       0.057367
     36 H8         -18.6960    13.2890   -24.7770 h1         1 8BS       0.057367
     37 H9         -19.4770    11.8520   -25.5010 h1         1 8BS       0.057367
     38 H10        -13.0250    18.0050   -21.8320 hc         1 8BS       0.056200
     39 H11        -14.3920    17.7550   -20.6970 hc         1 8BS       0.056200
     40 H12        -16.3080    18.8990   -24.8100 h1         1 8BS       0.103700
     41 H13        -14.1010    20.3120   -25.5650 h1         1 8BS       0.075700
     42 H14        -12.5200    18.5380   -26.0680 h1         1 8BS       0.068700
     43 H15        -13.2010    18.7780   -27.6920 h1         1 8BS       0.068700
     44 H16        -13.7620    11.7390   -27.8050 hn         1 8BS       0.535000
     45 H17        -16.5250    13.9070   -25.9640 h4         1 8BS       0.179000
     46 H18        -15.0140     7.6460   -27.4720 h1         1 8BS       0.046367
     47 H19        -15.8010     8.0830   -25.9420 h1         1 8BS       0.046367
     48 H20        -16.6850     8.2470   -27.4810 h1         1 8BS       0.046367
     49 H21        -13.4280    18.4780   -23.9020 hn         1 8BS       0.315500
     50 H22        -12.8680    15.7740   -20.7480 hc         1 8BS       0.044700
     51 H23        -14.4850    15.3440   -21.3460 hc         1 8BS       0.044700
     52 H24        -13.1500    15.5910   -22.4940 hc         1 8BS       0.044700
     53 C24        -18.6110    12.2070   -24.9290 c3         1 8BS       0.081900
     54 C28        -13.9500    17.4440   -21.6510 c3         1 8BS      -0.153400
@<TRIPOS>BOND
     1     1    10 1   
     2     1    13 1   
     3     1    29 1   
     4     1    30 1   
     5     2    13 1   
     6     2    14 ar  
     7     2    16 ar  
     8     3    14 ar  
     9     3    15 ar  
    10     3    18 1   
    11     4     5 1   
    12     4    15 ar  
    13     4    16 ar  
    14     5     6 1   
    15     5     7 1   
    16     6    17 2   
    17     6    31 1   
    18     7    32 1   
    19     7    33 1   
    20     7    34 1   
    21     8     9 1   
    22     8    18 1   
    23     8    19 2   
    24     9    21 2   
    25     9    22 1   
    26    10    11 1   
    27    10    25 1   
    28    10    40 1   
    29    11    12 1   
    30    11    24 1   
    31    11    41 1   
    32    12    13 1   
    33    12    42 1   
    34    12    43 1   
    35    15    17 1   
    36    18    44 1   
    37    19    20 1   
    38    19    45 1   
    39    20    21 1   
    40    20    53 1   
    41    22    23 1   
    42    23    46 1   
    43    23    47 1   
    44    23    48 1   
    45    25    26 1   
    46    25    49 1   
    47    26    28 2   
    48    26    54 1   
    49    27    50 1   
    50    27    51 1   
    51    27    52 1   
    52    27    54 1   
    53    35    53 1   
    54    36    53 1   
    55    37    53 1   
    56    38    54 1   
    57    39    54 1   
@<TRIPOS>SUBSTRUCTURE
     1 8BS         1 TEMP              0 ****  ****    0 ROOT
