@<TRIPOS>MOLECULE
8BT
   23    23     1     0     0
SMALL
No Charge or Current Charge


@<TRIPOS>ATOM
      1 C10         -1.5200     4.4260    -7.8000 c5         1 8BT      -0.089900
      2 C01         -3.6490     4.4100   -10.4040 c3         1 8BT      -0.340100
      3 S02         -2.5460     3.1240   -10.9570 s6         1 8BT       1.183100
      4 O03         -3.1120     1.8080   -10.6600 o          1 8BT      -0.544500
      5 O04         -2.0980     3.4560   -12.3100 o          1 8BT      -0.544500
      6 N05         -1.2030     3.3060    -9.9850 n7         1 8BT      -0.889300
      7 C06         -1.4410     3.0650    -8.5420 c5         1 8BT       0.210500
      8 C07         -0.1160     2.5380    -7.9450 c5         1 8BT      -0.089900
      9 C08         -0.4020     2.6910    -6.4270 c5         1 8BT      -0.076900
     10 C09         -1.1990     4.0320    -6.3250 c5         1 8BT      -0.076900
     11 H1          -0.7780     5.1370    -8.1830 hc         1 8BT       0.053450
     12 H2          -2.4980     4.9090    -7.8840 hc         1 8BT       0.053450
     13 H3          -4.0010     4.1460    -9.4030 h1         1 8BT       0.102367
     14 H4          -3.0880     5.3500   -10.4040 h1         1 8BT       0.102367
     15 H5          -4.4840     4.4470   -11.1110 h1         1 8BT       0.102367
     16 H6          -0.6500     2.5380   -10.3620 hn         1 8BT       0.490000
     17 H7          -2.2820     2.3910    -8.3190 h1         1 8BT       0.059700
     18 H8           0.0890     1.4980    -8.2230 hc         1 8BT       0.053450
     19 H9           0.7500     3.1390    -8.2510 hc         1 8BT       0.053450
     20 H10         -1.0030     1.8520    -6.0560 hc         1 8BT       0.047200
     21 H11          0.5200     2.7090    -5.8350 hc         1 8BT       0.047200
     22 H12         -0.6190     4.8150    -5.8230 hc         1 8BT       0.047200
     23 H13         -2.1160     3.8930    -5.7400 hc         1 8BT       0.047200
@<TRIPOS>BOND
     1     1     7 1   
     2     1    10 1   
     3     1    11 1   
     4     1    12 1   
     5     2     3 1   
     6     2    13 1   
     7     2    14 1   
     8     2    15 1   
     9     3     4 2   
    10     3     5 2   
    11     3     6 1   
    12     6     7 1   
    13     6    16 1   
    14     7     8 1   
    15     7    17 1   
    16     8     9 1   
    17     8    18 1   
    18     8    19 1   
    19     9    10 1   
    20     9    20 1   
    21     9    21 1   
    22    10    22 1   
    23    10    23 1   
@<TRIPOS>SUBSTRUCTURE
     1 8BT         1 TEMP              0 ****  ****    0 ROOT
