@<TRIPOS>MOLECULE
8BT
   23    23     1     0     0
SMALL
bcc


@<TRIPOS>ATOM
      1 C10         -1.9690     3.9630    -7.6350 c5         1 8BT      -0.089900
      2 C01         -3.2000     4.8690   -10.7950 c3         1 8BT      -0.229300
      3 S02         -2.8190     3.1340   -10.7480 s6         1 8BT       1.213900
      4 O03         -3.8850     2.4620   -10.0150 o          1 8BT      -0.615300
      5 O04         -2.5190     2.6980   -12.1060 o          1 8BT      -0.615300
      6 N05         -1.3900     3.0800    -9.9130 n7         1 8BT      -0.834100
      7 C06         -1.3860     2.8300    -8.4740 c5         1 8BT       0.210500
      8 C07          0.0450     2.7390    -7.9510 c5         1 8BT      -0.089900
      9 C08         -0.1300     2.8540    -6.4350 c5         1 8BT      -0.076900
     10 C09         -1.4030     3.7090    -6.2280 c5         1 8BT      -0.076900
     11 H1          -1.6030     4.9150    -8.0280 hc         1 8BT       0.053450
     12 H2          -3.0590     3.9950    -7.6490 hc         1 8BT       0.053450
     13 H3          -3.3230     5.2510    -9.7840 h1         1 8BT       0.102367
     14 H4          -2.3910     5.3940   -11.2970 h1         1 8BT       0.102367
     15 H5          -4.1290     4.9900   -11.3490 h1         1 8BT       0.102367
     16 H6          -0.7200     2.5160   -10.4260 hn         1 8BT       0.434800
     17 H7          -1.9060     1.8950    -8.2320 h1         1 8BT       0.059700
     18 H8           0.5510     1.8220    -8.2580 hc         1 8BT       0.053450
     19 H9           0.6190     3.5840    -8.3410 hc         1 8BT       0.053450
     20 H10         -0.2630     1.8630    -5.9980 hc         1 8BT       0.047200
     21 H11          0.7480     3.2920    -5.9610 hc         1 8BT       0.047200
     22 H12         -1.1880     4.6480    -5.7180 hc         1 8BT       0.047200
     23 H13         -2.1270     3.1760    -5.6110 hc         1 8BT       0.047200
@<TRIPOS>BOND
     1     1     7 1   
     2     1    10 1   
     3     1    11 1   
     4     1    12 1   
     5     2     3 1   
     6     2    13 1   
     7     2    14 1   
     8     2    15 1   
     9     3     4 2   
    10     3     5 2   
    11     3     6 1   
    12     6     7 1   
    13     6    16 1   
    14     7     8 1   
    15     7    17 1   
    16     8     9 1   
    17     8    18 1   
    18     8    19 1   
    19     9    10 1   
    20     9    20 1   
    21     9    21 1   
    22    10    22 1   
    23    10    23 1   
@<TRIPOS>SUBSTRUCTURE
     1 8BT         1 TEMP              0 ****  ****    0 ROOT
