@<TRIPOS>MOLECULE
8BV
   26    26     1     0     0
SMALL
abcg2


@<TRIPOS>ATOM
      1 C4          29.2050    10.6300    -7.8230 ca         1 8BV      -0.051000
      2 C5          29.4820     8.2860    -7.4510 ca         1 8BV      -0.026000
      3 C6          30.1040    10.5700    -8.8780 ca         1 8BV      -0.213000
      4 C7          30.3910     8.1850    -8.5090 ca         1 8BV      -0.185600
      5 C8          30.7060     9.3590    -9.2320 ca         1 8BV       0.183100
      6 C10         30.9450     6.8110    -8.7680 c          1 8BV       0.617700
      7 C1          33.2520    10.0410   -11.7470 c3         1 8BV      -0.108600
      8 C2          30.8110    10.5850   -12.1250 c3         1 8BV      -0.108600
      9 C3          28.8870     9.4860    -7.1000 ca         1 8BV      -0.160000
     10 C9          31.9210    10.3840   -11.1070 c3         1 8BV       0.183300
     11 N11         31.7910     6.6440    -9.8000 nt         1 8BV      -0.600000
     12 O12         30.6210     5.8600    -8.0470 o          1 8BV      -0.634100
     13 O13         31.6070     9.2590   -10.2410 os         1 8BV      -0.393100
     14 H1          28.7520    11.5800    -7.5710 ha         1 8BV       0.113000
     15 H2          29.2540     7.3800    -6.9070 ha         1 8BV       0.144000
     16 H3          30.3290    11.4730    -9.4240 ha         1 8BV       0.117000
     17 H4          34.0190     9.8910   -10.9860 hc         1 8BV       0.050200
     18 H5          33.1640     9.1330   -12.3460 hc         1 8BV       0.050200
     19 H6          33.5630    10.8580   -12.3990 hc         1 8BV       0.050200
     20 H7          29.8540    10.7850   -11.6450 hc         1 8BV       0.050200
     21 H8          31.0550    11.4320   -12.7680 hc         1 8BV       0.050200
     22 H9          30.7120     9.6930   -12.7480 hc         1 8BV       0.050200
     23 H10         28.1870     9.5280    -6.2770 ha         1 8BV       0.122000
     24 H11         32.0400    11.2720   -10.4830 h1         1 8BV       0.049700
     25 H12         32.1490     5.7200    -9.9810 hn         1 8BV       0.325000
     26 H13         32.0480     7.4180   -10.3920 hn         1 8BV       0.325000
@<TRIPOS>BOND
     1     1     3 ar  
     2     1     9 ar  
     3     1    14 1   
     4     2     4 ar  
     5     2     9 ar  
     6     2    15 1   
     7     3     5 ar  
     8     3    16 1   
     9     4     5 ar  
    10     4     6 1   
    11     5    13 1   
    12     6    11 1   
    13     6    12 2   
    14     7    10 1   
    15     7    17 1   
    16     7    18 1   
    17     7    19 1   
    18     8    10 1   
    19     8    20 1   
    20     8    21 1   
    21     8    22 1   
    22     9    23 1   
    23    10    13 1   
    24    10    24 1   
    25    11    25 1   
    26    11    26 1   
@<TRIPOS>SUBSTRUCTURE
     1 8BV         1 TEMP              0 ****  ****    0 ROOT
