@<TRIPOS>MOLECULE
8BV
   26    26     1     0     0
SMALL
No Charge or Current Charge


@<TRIPOS>ATOM
      1 C4          29.1970    10.6590    -7.7750 ca         1 8BV      -0.051000
      2 C5          29.3880     8.2580    -7.4770 ca         1 8BV      -0.026000
      3 C6          30.1580    10.6030    -8.7940 ca         1 8BV      -0.213000
      4 C7          30.3610     8.1770    -8.5030 ca         1 8BV      -0.185600
      5 C8          30.7430     9.3720    -9.1760 ca         1 8BV       0.183100
      6 C10         30.9310     6.8070    -8.8220 c          1 8BV       0.617700
      7 C1          33.2760    10.0390   -11.8210 c3         1 8BV      -0.108600
      8 C2          30.7760    10.5130   -12.0800 c3         1 8BV      -0.108600
      9 C3          28.8120     9.4850    -7.1190 ca         1 8BV      -0.160000
     10 C9          31.9650    10.4000   -11.1000 c3         1 8BV       0.183300
     11 N11         31.8590     6.6780    -9.7870 nt         1 8BV      -0.600000
     12 O12         30.5770     5.7990    -8.2300 o          1 8BV      -0.634100
     13 O13         31.6990     9.3240   -10.1780 os         1 8BV      -0.393100
     14 H1          28.7540    11.6120    -7.4930 ha         1 8BV       0.113000
     15 H2          29.0720     7.3610    -6.9460 ha         1 8BV       0.144000
     16 H3          30.4380    11.5350    -9.2730 ha         1 8BV       0.117000
     17 H4          34.0980     9.9500   -11.1010 hc         1 8BV       0.050200
     18 H5          33.1800     9.0880   -12.3590 hc         1 8BV       0.050200
     19 H6          33.5430    10.8190   -12.5450 hc         1 8BV       0.050200
     20 H7          29.8560    10.8020   -11.5590 hc         1 8BV       0.050200
     21 H8          30.9820    11.2740   -12.8420 hc         1 8BV       0.050200
     22 H9          30.5990     9.5580   -12.5880 hc         1 8BV       0.050200
     23 H10         28.0670     9.5250    -6.3280 ha         1 8BV       0.122000
     24 H11         32.1200    11.3520   -10.5760 h1         1 8BV       0.049700
     25 H12         32.2380     5.7690    -9.9990 hn         1 8BV       0.325000
     26 H13         32.1620     7.5040   -10.2830 hn         1 8BV       0.325000
@<TRIPOS>BOND
     1     1     3 ar  
     2     1     9 ar  
     3     1    14 1   
     4     2     4 ar  
     5     2     9 ar  
     6     2    15 1   
     7     3     5 ar  
     8     3    16 1   
     9     4     5 ar  
    10     4     6 1   
    11     5    13 1   
    12     6    11 1   
    13     6    12 2   
    14     7    10 1   
    15     7    17 1   
    16     7    18 1   
    17     7    19 1   
    18     8    10 1   
    19     8    20 1   
    20     8    21 1   
    21     8    22 1   
    22     9    23 1   
    23    10    13 1   
    24    10    24 1   
    25    11    25 1   
    26    11    26 1   
@<TRIPOS>SUBSTRUCTURE
     1 8BV         1 TEMP              0 ****  ****    0 ROOT
