@<TRIPOS>MOLECULE
8BW
   30    32     1     0     0
SMALL
abcg2


@<TRIPOS>ATOM
      1 C4         -13.6690    15.3920   -10.9130 ca         1 8BW      -0.161000
      2 C5         -13.4420    15.0930    -9.5660 ca         1 8BW       0.182100
      3 C6         -11.0590    15.2240    -9.8220 c3         1 8BW       0.176600
      4 C11        -14.5340    14.8550    -8.7090 ca         1 8BW      -0.140000
      5 C7          -9.8350    15.0660    -8.9580 cy         1 8BW      -0.093700
      6 C8          -9.6960    15.9010    -7.6590 cy         1 8BW      -0.083900
      7 C9          -9.0560    14.6620    -6.9830 cy         1 8BW      -0.089400
      8 C10         -9.6450    13.7800    -8.1140 cy         1 8BW      -0.083900
      9 C12        -15.8240    14.9100    -9.1850 ca         1 8BW      -0.011000
     10 C13        -16.0630    15.2090   -10.5320 ca         1 8BW      -0.199600
     11 N1         -17.5990    15.6440   -12.4970 nc         1 8BW      -0.173400
     12 N2         -16.6470    15.8610   -13.2520 nd         1 8BW      -0.174400
     13 C3         -14.9760    15.4490   -11.3800 ca         1 8BW      -0.096600
     14 C1         -17.4050    15.2650   -11.0710 c          1 8BW       0.635100
     15 C2         -15.2430    15.7540   -12.7860 c          1 8BW       0.622100
     16 O2         -14.4090    15.9390   -13.6360 o          1 8BW      -0.439100
     17 O3         -12.2320    15.0100    -9.0070 os         1 8BW      -0.343100
     18 H1         -12.8570    15.5790   -11.5980 ha         1 8BW       0.145000
     19 H2         -11.0600    14.4920   -10.6340 h1         1 8BW       0.047700
     20 H3         -11.1060    16.2290   -10.2490 h1         1 8BW       0.047700
     21 H4         -14.3330    14.6270    -7.6710 ha         1 8BW       0.141000
     22 H5          -8.9680    15.2260    -9.6030 hc         1 8BW       0.066700
     23 H6          -9.1030    16.8130    -7.7160 hc         1 8BW       0.056200
     24 H7         -10.6710    16.1340    -7.2300 hc         1 8BW       0.056200
     25 H8          -9.3630    14.4360    -5.9620 hc         1 8BW       0.051700
     26 H9          -7.9670    14.6970    -7.0250 hc         1 8BW       0.051700
     27 H10        -10.6040    13.3480    -7.8270 hc         1 8BW       0.056200
     28 H11         -9.0120    12.9980    -8.5340 hc         1 8BW       0.056200
     29 H12        -16.6590    14.7250    -8.5240 ha         1 8BW       0.144000
     30 O1         -18.4280    15.0370   -10.4680 o          1 8BW      -0.447100
@<TRIPOS>BOND
     1     1     2 ar  
     2     1    13 ar  
     3     1    18 1   
     4     2     4 ar  
     5     2    17 1   
     6     3     5 1   
     7     3    17 1   
     8     3    19 1   
     9     3    20 1   
    10     4     9 ar  
    11     4    21 1   
    12     5     6 1   
    13     5     8 1   
    14     5    22 1   
    15     6     7 1   
    16     6    23 1   
    17     6    24 1   
    18     7     8 1   
    19     7    25 1   
    20     7    26 1   
    21     8    27 1   
    22     8    28 1   
    23     9    10 ar  
    24     9    29 1   
    25    10    13 ar  
    26    10    14 1   
    27    11    12 2   
    28    11    14 1   
    29    12    15 1   
    30    13    15 1   
    31    14    30 2   
    32    15    16 2   
@<TRIPOS>SUBSTRUCTURE
     1 8BW         1 TEMP              0 ****  ****    0 ROOT
