@<TRIPOS>MOLECULE
8BW
   30    32     1     0     0
SMALL
No Charge or Current Charge


@<TRIPOS>ATOM
      1 C4         -13.7210    15.3850   -10.9390 ca         1 8BW      -0.161000
      2 C5         -13.4930    15.0870    -9.5780 ca         1 8BW       0.182100
      3 C6         -11.0390    15.2250    -9.8150 c3         1 8BW       0.176600
      4 C11        -14.5840    14.8570    -8.7270 ca         1 8BW      -0.140000
      5 C7          -9.8070    15.0630    -8.9040 cy         1 8BW      -0.093700
      6 C8          -9.7370    15.8520    -7.5480 cy         1 8BW      -0.083900
      7 C9          -8.8300    14.6790    -7.0470 cy         1 8BW      -0.089400
      8 C10         -9.6650    13.7760    -8.0160 cy         1 8BW      -0.083900
      9 C12        -15.8970    14.9230    -9.2200 ca         1 8BW      -0.011000
     10 C13        -16.1250    15.2200   -10.5790 ca         1 8BW      -0.199600
     11 N1         -17.6130    15.6000   -12.4960 nc         1 8BW      -0.173400
     12 N2         -16.6570    15.8320   -13.3830 nd         1 8BW      -0.174400
     13 C3         -15.0400    15.4530   -11.4450 ca         1 8BW      -0.096600
     14 C1         -17.5120    15.2990   -11.1430 c          1 8BW       0.635100
     15 C2         -15.3130    15.7710   -12.9030 c          1 8BW       0.622100
     16 O2         -14.3930    15.9790   -13.6840 o          1 8BW      -0.439100
     17 O3         -12.2280    15.0080    -9.0340 os         1 8BW      -0.343100
     18 H1         -12.8870    15.5650   -11.6120 ha         1 8BW       0.145000
     19 H2         -10.9670    14.4950   -10.6320 h1         1 8BW       0.047700
     20 H3         -11.0280    16.2380   -10.2390 h1         1 8BW       0.047700
     21 H4         -14.4090    14.6280    -7.6800 ha         1 8BW       0.141000
     22 H5          -8.9270    15.2360    -9.5360 hc         1 8BW       0.066700
     23 H6          -9.2640    16.8390    -7.5920 hc         1 8BW       0.056200
     24 H7         -10.6910    15.9470    -7.0160 hc         1 8BW       0.056200
     25 H8          -8.9050    14.4370    -5.9810 hc         1 8BW       0.051700
     26 H9          -7.7700    14.7760    -7.3110 hc         1 8BW       0.051700
     27 H10        -10.6020    13.4000    -7.5890 hc         1 8BW       0.056200
     28 H11         -9.1280    12.9370    -8.4710 hc         1 8BW       0.056200
     29 H12        -16.7310    14.7410    -8.5440 ha         1 8BW       0.144000
     30 O1         -18.5000    15.1080   -10.4470 o          1 8BW      -0.447100
@<TRIPOS>BOND
     1     1     2 ar  
     2     1    13 ar  
     3     1    18 1   
     4     2     4 ar  
     5     2    17 1   
     6     3     5 1   
     7     3    17 1   
     8     3    19 1   
     9     3    20 1   
    10     4     9 ar  
    11     4    21 1   
    12     5     6 1   
    13     5     8 1   
    14     5    22 1   
    15     6     7 1   
    16     6    23 1   
    17     6    24 1   
    18     7     8 1   
    19     7    25 1   
    20     7    26 1   
    21     8    27 1   
    22     8    28 1   
    23     9    10 ar  
    24     9    29 1   
    25    10    13 ar  
    26    10    14 1   
    27    11    12 2   
    28    11    14 1   
    29    12    15 1   
    30    13    15 1   
    31    14    30 2   
    32    15    16 2   
@<TRIPOS>SUBSTRUCTURE
     1 8BW         1 TEMP              0 ****  ****    0 ROOT
