@<TRIPOS>MOLECULE
8BX
   56    58     1     0     0
SMALL
abcg2


@<TRIPOS>ATOM
      1 N01         -5.2740     0.7050    -1.1220 nb         1 8BX      -0.753000
      2 C02         -6.3060     1.5340    -1.0140 ca         1 8BX       0.595900
      3 N02         -7.3620     1.3230    -1.8570 nv         1 8BX      -1.050900
      4 C03         -6.3500     2.5600    -0.0530 ca         1 8BX      -0.231000
      5 C04         -5.2850     2.7140     0.8090 ca         1 8BX      -0.000300
      6 C05         -4.2020     1.8350     0.6850 ca         1 8BX      -0.216000
      7 C06         -4.2420     0.8510    -0.2870 ca         1 8BX       0.394300
      8 C07         -5.2770     3.7840     1.8580 c3         1 8BX      -0.053800
      9 C08         -3.1190    -0.1340    -0.4490 c3         1 8BX      -0.113700
     10 O09         -1.2810    -2.1120    -0.6860 os         1 8BX      -0.468000
     11 N1          -3.5620    -2.9330     1.8980 n7         1 8BX      -0.857400
     12 C10         -0.3330    -3.0860    -1.0520 c3         1 8BX       0.158600
     13 C11          0.8620    -2.3870    -1.6600 c3         1 8BX       0.162800
     14 N12          1.5260    -1.5500    -0.6770 n7         1 8BX      -0.852400
     15 C13          2.6370    -0.8180    -1.2350 c3         1 8BX       0.115800
     16 C14          3.4490    -0.1610    -0.1330 c3         1 8BX       0.244300
     17 F15          2.6090     0.6420     0.5970 f          1 8BX      -0.107000
     18 F16          3.8800    -1.1220     0.7350 f          1 8BX      -0.107000
     19 C2          -3.8400    -1.5530     1.5420 c5         1 8BX       0.147800
     20 C21          4.6370     0.6600    -0.5740 ca         1 8BX      -0.150300
     21 C22          5.4490     1.3260     0.3470 ca         1 8BX       0.159000
     22 CL22         5.1400     1.2540     2.0510 cl         1 8BX      -0.175000
     23 C23          6.5420     2.0730    -0.0630 ca         1 8BX      -0.112000
     24 C24          6.8480     2.1650    -1.4120 ca         1 8BX      -0.082000
     25 C25          6.0610     1.5100    -2.3440 ca         1 8BX      -0.116000
     26 C26          4.9690     0.7670    -1.9210 ca         1 8BX      -0.078000
     27 C3          -3.5330    -1.5200     0.0410 c5         1 8BX      -0.054700
     28 C4          -2.4670    -2.6330    -0.1460 c5         1 8BX       0.169300
     29 C5          -2.2920    -3.2270     1.2620 c5         1 8BX       0.112800
     30 HN02        -7.1610     0.7790    -2.6800 hn         1 8BX       0.465500
     31 HN0A        -7.9780     2.1010    -2.0270 hn         1 8BX       0.465500
     32 H03         -7.2100     3.2160     0.0000 ha         1 8BX       0.118000
     33 H05         -3.3440     1.9200     1.3400 ha         1 8BX       0.122000
     34 H07         -5.2650     3.3450     2.8560 hc         1 8BX       0.046033
     35 H07A        -4.3870     4.4080     1.7730 hc         1 8BX       0.046033
     36 H07B        -6.1520     4.4280     1.7850 hc         1 8BX       0.046033
     37 H08         -2.8380    -0.1770    -1.5030 hc         1 8BX       0.062700
     38 H08A        -2.2440     0.2130     0.1050 hc         1 8BX       0.062700
     39 HN1         -3.5190    -3.0660     2.9000 hn         1 8BX       0.415000
     40 H10         -0.0060    -3.6740    -0.1840 h1         1 8BX       0.034200
     41 H10A        -0.7580    -3.7880    -1.7820 h1         1 8BX       0.034200
     42 H11          1.5600    -3.1540    -2.0050 h1         1 8BX       0.037700
     43 H11A         0.5410    -1.8290    -2.5540 h1         1 8BX       0.037700
     44 HN12         0.8500    -0.9000    -0.2980 hn         1 8BX       0.437000
     45 H13          3.2880    -1.5150    -1.7700 h1         1 8BX       0.049200
     46 H13A         2.3350    -0.0490    -1.9600 h1         1 8BX       0.049200
     47 H2          -4.8720    -1.2820     1.7680 h1         1 8BX       0.041200
     48 H2'A        -3.1880    -0.8360     2.0670 h1         1 8BX       0.041200
     49 H23          7.1520     2.5810     0.6710 ha         1 8BX       0.133000
     50 H24          7.7040     2.7480    -1.7260 ha         1 8BX       0.121000
     51 H25          6.2920     1.5720    -3.3980 ha         1 8BX       0.121000
     52 H26          4.3700     0.2660    -2.6690 ha         1 8BX       0.117000
     53 H3          -4.4320    -1.8140    -0.5060 hc         1 8BX       0.079700
     54 H4          -2.8640    -3.4020    -0.8220 h1         1 8BX       0.044700
     55 H5          -1.4380    -2.7250     1.7450 h1         1 8BX       0.044200
     56 H5'A        -2.0900    -4.3000     1.2590 h1         1 8BX       0.044200
@<TRIPOS>BOND
     1     1     2 ar  
     2     1     7 ar  
     3     2     3 1   
     4     2     4 ar  
     5     3    30 1   
     6     3    31 1   
     7     4     5 ar  
     8     4    32 1   
     9     5     6 ar  
    10     5     8 1   
    11     6     7 ar  
    12     6    33 1   
    13     7     9 1   
    14     8    34 1   
    15     8    35 1   
    16     8    36 1   
    17     9    27 1   
    18     9    37 1   
    19     9    38 1   
    20    10    12 1   
    21    10    28 1   
    22    11    19 1   
    23    11    29 1   
    24    11    39 1   
    25    12    13 1   
    26    12    40 1   
    27    12    41 1   
    28    13    14 1   
    29    13    42 1   
    30    13    43 1   
    31    14    15 1   
    32    14    44 1   
    33    15    16 1   
    34    15    45 1   
    35    15    46 1   
    36    16    17 1   
    37    16    18 1   
    38    16    20 1   
    39    19    27 1   
    40    19    47 1   
    41    19    48 1   
    42    20    21 ar  
    43    20    26 ar  
    44    21    22 1   
    45    21    23 ar  
    46    23    24 ar  
    47    23    49 1   
    48    24    25 ar  
    49    24    50 1   
    50    25    26 ar  
    51    25    51 1   
    52    26    52 1   
    53    27    28 1   
    54    27    53 1   
    55    28    29 1   
    56    28    54 1   
    57    29    55 1   
    58    29    56 1   
@<TRIPOS>SUBSTRUCTURE
     1 8BX         1 TEMP              0 ****  ****    0 ROOT
