@<TRIPOS>MOLECULE
8BX
   56    58     1     0     0
SMALL
No Charge or Current Charge


@<TRIPOS>ATOM
      1 N01         -5.6100     0.6700    -0.9980 nb         1 8BX      -0.753000
      2 C02         -6.3840     1.6870    -0.6510 ca         1 8BX       0.595900
      3 N02         -7.6230     1.5340    -1.1220 nv         1 8BX      -1.050900
      4 C03         -5.9740     2.7920     0.0990 ca         1 8BX      -0.231000
      5 C04         -4.6410     2.8460     0.5320 ca         1 8BX      -0.000300
      6 C05         -3.8050     1.7750     0.1790 ca         1 8BX      -0.216000
      7 C06         -4.3240     0.7100    -0.5830 ca         1 8BX       0.394300
      8 C07         -4.1240     4.0120     1.3570 c3         1 8BX      -0.053800
      9 C08         -3.4450    -0.4670    -0.9750 c3         1 8BX      -0.113700
     10 O09         -1.3520    -2.4560    -0.8070 os         1 8BX      -0.468000
     11 N1          -3.0180    -2.6730     2.0960 n7         1 8BX      -0.857400
     12 C10         -0.4400    -3.4630    -1.3000 c3         1 8BX       0.158600
     13 C11          0.8550    -2.7530    -1.7710 c3         1 8BX       0.162800
     14 N12          1.4510    -1.9570    -0.6760 n7         1 8BX      -0.852400
     15 C13          2.5500    -1.0370    -1.0760 c3         1 8BX       0.115800
     16 C14          3.0720    -0.1420     0.0980 c3         1 8BX       0.244300
     17 F15          2.0060     0.5310     0.5960 f          1 8BX      -0.107000
     18 F16          3.5000    -0.9670     1.0840 f          1 8BX      -0.107000
     19 C2          -2.9650    -1.3420     1.4540 c5         1 8BX       0.147800
     20 C21          4.1950     0.8500    -0.2890 ca         1 8BX      -0.150300
     21 C22          4.7440     1.7310     0.6820 ca         1 8BX       0.159000
     22 Cl22         4.1910     1.7490     2.3610 cl         1 8BX      -0.175000
     23 C23          5.7640     2.6340     0.3360 ca         1 8BX      -0.112000
     24 C24          6.2590     2.6810    -0.9750 ca         1 8BX      -0.082000
     25 C25          5.7310     1.8190    -1.9450 ca         1 8BX      -0.116000
     26 C26          4.7120     0.9130    -1.6090 ca         1 8BX      -0.078000
     27 C3          -3.5020    -1.6480     0.0340 c5         1 8BX      -0.054700
     28 C4          -2.6480    -2.9040    -0.3240 c5         1 8BX       0.169300
     29 C5          -2.4680    -3.6090     1.0730 c5         1 8BX       0.112800
     30 HN02        -7.7190     0.8210    -1.8350 hn         1 8BX       0.465500
     31 HN0A        -8.1930     2.3650    -1.2300 hn         1 8BX       0.465500
     32 H03         -6.6750     3.5850     0.3400 ha         1 8BX       0.118000
     33 H05         -2.7640     1.7620     0.4920 ha         1 8BX       0.122000
     34 H07         -4.2110     3.8000     2.4290 hc         1 8BX       0.046033
     35 H07A        -3.0690     4.2170     1.1390 hc         1 8BX       0.046033
     36 H07B        -4.6870     4.9300     1.1490 hc         1 8BX       0.046033
     37 H08         -3.7360    -0.8280    -1.9690 hc         1 8BX       0.062700
     38 H08A        -2.4120    -0.1170    -1.0830 hc         1 8BX       0.062700
     39 HN1         -2.4470    -2.6890     2.9520 hn         1 8BX       0.415000
     40 H10         -0.1880    -4.1900    -0.5180 h1         1 8BX       0.034200
     41 H10A        -0.8820    -4.0070    -2.1450 h1         1 8BX       0.034200
     42 H11          1.5680    -3.5050    -2.1360 h1         1 8BX       0.037700
     43 H11A         0.5970    -2.1040    -2.6190 h1         1 8BX       0.037700
     44 HN12         0.6830    -1.3960    -0.2820 hn         1 8BX       0.437000
     45 H13          3.3930    -1.6180    -1.4730 h1         1 8BX       0.049200
     46 H13A         2.2000    -0.3740    -1.8790 h1         1 8BX       0.049200
     47 H2          -3.5850    -0.6090     1.9900 h1         1 8BX       0.041200
     48 H2'A        -1.9340    -0.9600     1.4190 h1         1 8BX       0.041200
     49 H23          6.1720     3.3010     1.0910 ha         1 8BX       0.133000
     50 H24          7.0490     3.3820    -1.2370 ha         1 8BX       0.121000
     51 H25          6.1140     1.8520    -2.9630 ha         1 8BX       0.121000
     52 H26          4.3390     0.2660    -2.3980 ha         1 8BX       0.117000
     53 H3          -4.5570    -1.9390     0.0990 hc         1 8BX       0.079700
     54 H4          -3.1260    -3.5420    -1.0790 h1         1 8BX       0.044700
     55 H5          -1.4080    -3.8130     1.2810 h1         1 8BX       0.044200
     56 H5'A        -2.9970    -4.5720     1.1080 h1         1 8BX       0.044200
@<TRIPOS>BOND
     1     1     2 ar  
     2     1     7 ar  
     3     2     3 1   
     4     2     4 ar  
     5     3    30 1   
     6     3    31 1   
     7     4     5 ar  
     8     4    32 1   
     9     5     6 ar  
    10     5     8 1   
    11     6     7 ar  
    12     6    33 1   
    13     7     9 1   
    14     8    34 1   
    15     8    35 1   
    16     8    36 1   
    17     9    27 1   
    18     9    37 1   
    19     9    38 1   
    20    10    12 1   
    21    10    28 1   
    22    11    19 1   
    23    11    29 1   
    24    11    39 1   
    25    12    13 1   
    26    12    40 1   
    27    12    41 1   
    28    13    14 1   
    29    13    42 1   
    30    13    43 1   
    31    14    15 1   
    32    14    44 1   
    33    15    16 1   
    34    15    45 1   
    35    15    46 1   
    36    16    17 1   
    37    16    18 1   
    38    16    20 1   
    39    19    27 1   
    40    19    47 1   
    41    19    48 1   
    42    20    21 ar  
    43    20    26 ar  
    44    21    22 1   
    45    21    23 ar  
    46    23    24 ar  
    47    23    49 1   
    48    24    25 ar  
    49    24    50 1   
    50    25    26 ar  
    51    25    51 1   
    52    26    52 1   
    53    27    28 1   
    54    27    53 1   
    55    28    29 1   
    56    28    54 1   
    57    29    55 1   
    58    29    56 1   
@<TRIPOS>SUBSTRUCTURE
     1 8BX         1 TEMP              0 ****  ****    0 ROOT
