@<TRIPOS>MOLECULE
8BY
   43    45     1     0     0
SMALL
abcg2


@<TRIPOS>ATOM
      1 C7          -8.2730    17.5600    11.1080 ca         1 8BY       0.037000
      2 C6          -9.6760    17.4250    11.0140 ca         1 8BY      -0.222000
      3 C9          -6.0980    17.6280     9.9560 ca         1 8BY      -0.063000
      4 C13         -8.3020    17.7240    13.6470 cp         1 8BY      -0.006000
      5 C21         -8.1920    17.4540     8.6750 ca         1 8BY      -0.008000
      6 C8          -7.5090    17.5530     9.9030 ca         1 8BY      -0.087000
      7 C18         -7.9770    16.8340    14.6760 ca         1 8BY      -0.108500
      8 C16         -9.5980    17.8680    16.1220 ca         1 8BY      -0.022000
      9 C19        -10.2580    17.9420    17.3840 cg         1 8BY       0.323000
     10 C1         -13.9040    17.5120    10.3650 c3         1 8BY      -0.109600
     11 C2         -12.5240    17.1140    10.8490 c3         1 8BY       0.182300
     12 C3         -12.4810    15.7080    11.4220 c3         1 8BY      -0.109600
     13 C5         -10.3160    17.3230     9.7990 ca         1 8BY       0.188100
     14 C10         -5.4540    17.6940    11.1640 ca         1 8BY      -0.128000
     15 C11         -6.2010    17.7090    12.3570 ca         1 8BY      -0.070000
     16 C12         -7.5800    17.6630    12.3550 cp         1 8BY      -0.061000
     17 C14         -9.2870    18.6920    13.8830 ca         1 8BY      -0.108500
     18 C15         -9.9310    18.7700    15.1040 ca         1 8BY      -0.073000
     19 C17         -8.6150    16.8970    15.9040 ca         1 8BY      -0.073000
     20 N20        -10.7890    18.0020    18.4070 n1         1 8BY      -0.451000
     21 C22         -9.5590    17.3450     8.5820 ca         1 8BY      -0.172600
     22 C23        -10.1160    17.2530     7.1830 c          1 8BY       0.616700
     23 O24         -9.3600    17.3020     6.2080 o          1 8BY      -0.631100
     24 N25        -11.4440    17.1160     7.0320 nt         1 8BY      -0.598000
     25 HC6        -10.2490    17.3890    11.9240 ha         1 8BY       0.125000
     26 HC9         -5.5400    17.6250     9.0270 ha         1 8BY       0.121000
     27 HC21        -7.6210    17.4580     7.7570 ha         1 8BY       0.147000
     28 HC18        -7.2240    16.0760    14.5070 ha         1 8BY       0.125500
     29 HC1B       -14.6070    17.4830    11.1990 hc         1 8BY       0.050867
     30 HC1A       -13.8930    18.5230     9.9550 hc         1 8BY       0.050867
     31 HC1C       -14.2530    16.8220     9.5950 hc         1 8BY       0.050867
     32 HC2        -12.1770    17.8440    11.5840 h1         1 8BY       0.049700
     33 HC3C       -13.1160    15.6550    12.3090 hc         1 8BY       0.050867
     34 HC3B       -12.8520    14.9940    10.6850 hc         1 8BY       0.050867
     35 HC3A       -11.4710    15.4190    11.7110 hc         1 8BY       0.050867
     36 HC10        -4.3740    17.7460    11.2100 ha         1 8BY       0.120000
     37 HC11        -5.6810    17.7860    13.3040 ha         1 8BY       0.116000
     38 HC14        -9.5380    19.4010    13.1060 ha         1 8BY       0.125500
     39 HC15       -10.6850    19.5250    15.2790 ha         1 8BY       0.126500
     40 HC17        -8.3600    16.2000    16.6910 ha         1 8BY       0.126500
     41 H25B       -11.8160    17.0480     6.0980 hn         1 8BY       0.327000
     42 H25A       -12.0550    17.0680     7.8320 hn         1 8BY       0.327000
     43 O4         -11.6620    17.2050     9.6830 os         1 8BY      -0.391100
@<TRIPOS>BOND
     1     1     2 ar  
     2     1     6 ar  
     3     1    16 ar  
     4     2    13 ar  
     5     2    25 1   
     6     3     6 ar  
     7     3    14 ar  
     8     3    26 1   
     9     4     7 ar  
    10     4    16 1   
    11     4    17 ar  
    12     5     6 ar  
    13     5    21 ar  
    14     5    27 1   
    15     7    19 ar  
    16     7    28 1   
    17     8     9 1   
    18     8    18 ar  
    19     8    19 ar  
    20     9    20 3   
    21    10    11 1   
    22    10    29 1   
    23    10    30 1   
    24    10    31 1   
    25    11    12 1   
    26    11    32 1   
    27    11    43 1   
    28    12    33 1   
    29    12    34 1   
    30    12    35 1   
    31    13    21 ar  
    32    13    43 1   
    33    14    15 ar  
    34    14    36 1   
    35    15    16 ar  
    36    15    37 1   
    37    17    18 ar  
    38    17    38 1   
    39    18    39 1   
    40    19    40 1   
    41    21    22 1   
    42    22    23 2   
    43    22    24 1   
    44    24    41 1   
    45    24    42 1   
@<TRIPOS>SUBSTRUCTURE
     1 8BY         1 TEMP              0 ****  ****    0 ROOT
