@<TRIPOS>MOLECULE
8BY
   43    45     1     0     0
SMALL
No Charge or Current Charge


@<TRIPOS>ATOM
      1 C7          -8.2360    17.5710    11.0980 ca         1 8BY       0.037000
      2 C6          -9.6410    17.4960    11.0180 ca         1 8BY      -0.222000
      3 C9          -6.0840    17.5610     9.9370 ca         1 8BY      -0.063000
      4 C13         -8.2830    17.7640    13.6580 cp         1 8BY      -0.006000
      5 C21         -8.1460    17.4280     8.6610 ca         1 8BY      -0.008000
      6 C8          -7.4910    17.5210     9.9000 ca         1 8BY      -0.087000
      7 C18         -8.0740    16.7930    14.6640 ca         1 8BY      -0.108500
      8 C16         -9.6230    17.9410    16.1560 ca         1 8BY      -0.022000
      9 C19        -10.3040    18.0270    17.4190 cg         1 8BY       0.323000
     10 C1         -13.9810    17.3980    10.4000 c3         1 8BY      -0.109600
     11 C2         -12.5460    17.0860    10.8600 c3         1 8BY       0.182300
     12 C3         -12.3840    15.6120    11.2950 c3         1 8BY      -0.109600
     13 C5         -10.3090    17.3890     9.7770 ca         1 8BY       0.188100
     14 C10         -5.4140    17.6430    11.1660 ca         1 8BY      -0.128000
     15 C11         -6.1480    17.6980    12.3600 ca         1 8BY      -0.070000
     16 C12         -7.5630    17.6750    12.3530 cp         1 8BY      -0.061000
     17 C14         -9.1640    18.8370    13.9360 ca         1 8BY      -0.108500
     18 C15         -9.8320    18.9240    15.1700 ca         1 8BY      -0.073000
     19 C17         -8.7390    16.8750    15.9000 ca         1 8BY      -0.073000
     20 N20        -10.8650    18.0920    18.4410 n1         1 8BY      -0.451000
     21 C22         -9.5550    17.3670     8.5740 ca         1 8BY      -0.172600
     22 C23        -10.1690    17.2700     7.1900 c          1 8BY       0.616700
     23 O24         -9.4900    17.2420     6.1750 o          1 8BY      -0.631100
     24 N25        -11.5060    17.2110     7.0540 nt         1 8BY      -0.598000
     25 HC6        -10.2130    17.5130    11.9360 ha         1 8BY       0.125000
     26 HC9         -5.5070    17.5220     9.0150 ha         1 8BY       0.121000
     27 HC21        -7.5470    17.3990     7.7530 ha         1 8BY       0.147000
     28 HC18        -7.3940    15.9650    14.4760 ha         1 8BY       0.125500
     29 HC1B       -14.6910    17.2360    11.2200 hc         1 8BY       0.050867
     30 HC1A       -14.0620    18.4440    10.0830 hc         1 8BY       0.050867
     31 HC1C       -14.2720    16.7560     9.5600 hc         1 8BY       0.050867
     32 HC2        -12.3070    17.7580    11.6940 h1         1 8BY       0.049700
     33 HC3C       -13.0770    15.3770    12.1110 hc         1 8BY       0.050867
     34 HC3B       -12.5980    14.9350    10.4590 hc         1 8BY       0.050867
     35 HC3A       -11.3680    15.4080    11.6500 hc         1 8BY       0.050867
     36 HC10        -4.3270    17.6690    11.1920 ha         1 8BY       0.120000
     37 HC11        -5.6170    17.7730    13.3060 ha         1 8BY       0.116000
     38 HC14        -9.3270    19.6060    13.1840 ha         1 8BY       0.125500
     39 HC15       -10.5080    19.7560    15.3580 ha         1 8BY       0.126500
     40 HC17        -8.5650    16.1120    16.6550 ha         1 8BY       0.126500
     41 H25B       -11.9140    17.1460     6.1340 hn         1 8BY       0.327000
     42 H25A       -12.0820    17.2330     7.8840 hn         1 8BY       0.327000
     43 O4         -11.6930    17.3270     9.7230 os         1 8BY      -0.391100
@<TRIPOS>BOND
     1     1     2 ar  
     2     1     6 ar  
     3     1    16 ar  
     4     2    13 ar  
     5     2    25 1   
     6     3     6 ar  
     7     3    14 ar  
     8     3    26 1   
     9     4     7 ar  
    10     4    16 1   
    11     4    17 ar  
    12     5     6 ar  
    13     5    21 ar  
    14     5    27 1   
    15     7    19 ar  
    16     7    28 1   
    17     8     9 1   
    18     8    18 ar  
    19     8    19 ar  
    20     9    20 3   
    21    10    11 1   
    22    10    29 1   
    23    10    30 1   
    24    10    31 1   
    25    11    12 1   
    26    11    32 1   
    27    11    43 1   
    28    12    33 1   
    29    12    34 1   
    30    12    35 1   
    31    13    21 ar  
    32    13    43 1   
    33    14    15 ar  
    34    14    36 1   
    35    15    16 ar  
    36    15    37 1   
    37    17    18 ar  
    38    17    38 1   
    39    18    39 1   
    40    19    40 1   
    41    21    22 1   
    42    22    23 2   
    43    22    24 1   
    44    24    41 1   
    45    24    42 1   
@<TRIPOS>SUBSTRUCTURE
     1 8BY         1 TEMP              0 ****  ****    0 ROOT
