@<TRIPOS>MOLECULE
8C0
   94    97     1     0     0
SMALL
bcc


@<TRIPOS>ATOM
      1 O38         -4.9180    -6.6750    -1.7120 oh         1 8C0      -0.494100
      2 C32         -5.1340    -5.3800    -1.4010 ca         1 8C0       0.142100
      3 C31         -4.9320    -4.9830    -0.0800 ca         1 8C0      -0.197500
      4 C30         -5.1400    -3.6640     0.2860 ca         1 8C0      -0.074500
      5 C33         -5.5500    -4.4410    -2.3390 ca         1 8C0      -0.197500
      6 C34         -5.7600    -3.1240    -1.9530 ca         1 8C0      -0.074500
      7 C29         -5.5560    -2.7120    -0.6430 ca         1 8C0      -0.160300
      8 C21         -5.7400    -1.2630    -0.2510 c3         1 8C0       0.198400
      9 O39         -6.3920    -1.1310     0.9910 os         1 8C0      -0.405600
     10 C40         -7.7490    -1.4990     0.9550 c3         1 8C0       0.121700
     11 C20         -4.3970    -0.5440    -0.1640 c3         1 8C0      -0.069400
     12 C19         -4.5300     0.9570     0.0730 c3         1 8C0      -0.072400
     13 C18         -3.2070     1.6880     0.3360 c3         1 8C0      -0.052700
     14 C25         -3.4380     3.1950     0.4890 c3         1 8C0      -0.073400
     15 C26         -4.4160     3.5870     1.5930 c3         1 8C0      -0.078400
     16 C27         -4.4460     5.0900     1.8430 c3         1 8C0      -0.076400
     17 C28         -5.4220     5.4890     2.9400 c3         1 8C0      -0.088100
     18 C17         -2.1160     1.3610    -0.7130 c3         1 8C0      -0.046700
     19 C41         -2.5300     1.8190    -2.1110 c3         1 8C0      -0.085100
     20 C16         -0.7360     1.8860    -0.2890 c5         1 8C0      -0.053700
     21 C15         -0.3260     1.3820     1.1200 c5         1 8C0      -0.077400
     22 C23          0.4890     1.5420    -1.1750 c5         1 8C0      -0.036000
     23 C24          0.5030     0.0620    -1.5640 c3         1 8C0      -0.078100
     24 C12          0.6920     2.4280    -2.4070 c6         1 8C0      -0.063400
     25 C11          2.0750     2.2370    -3.0270 c6         1 8C0      -0.071400
     26 C10          3.2120     2.4150    -2.0150 c6         1 8C0      -0.042200
     27 C22          1.6350     1.8660    -0.1810 c5         1 8C0      -0.036500
     28 C14          1.2030     1.2020     1.1150 c5         1 8C0      -0.071400
     29 C9           2.9900     1.6100    -0.7620 c2         1 8C0      -0.079400
     30 C8           3.8850     0.7810    -0.2000 ce         1 8C0      -0.140000
     31 C7           5.2100     0.4790    -0.7110 ce         1 8C0      -0.111000
     32 C6           6.1420    -0.2870    -0.1230 c2         1 8C0      -0.107400
     33 C1           7.4730    -0.5250    -0.7750 c6         1 8C0      -0.031700
     34 C5           5.9980    -0.9520     1.2160 c6         1 8C0      -0.031700
     35 C4           7.1360    -0.5270     2.1540 c6         1 8C0       0.188300
     36 O37          6.9750    -1.2160     3.3680 oh         1 8C0      -0.590800
     37 C3           8.4600    -0.7850     1.4780 c2         1 8C0      -0.199400
     38 C36          9.4000    -1.5850     1.9690 c2         1 8C0      -0.199000
     39 C2           8.6200    -0.1030     0.1420 c6         1 8C0       0.188300
     40 O35          8.5690     1.3040     0.2660 oh         1 8C0      -0.590800
     41 H1          -5.0910    -6.8280    -2.6480 ho         1 8C0       0.425000
     42 H2          -4.6140    -5.7120     0.6560 ha         1 8C0       0.138500
     43 H3          -4.9800    -3.3770     1.3190 ha         1 8C0       0.136000
     44 H4          -5.7190    -4.7330    -3.3690 ha         1 8C0       0.138500
     45 H5          -6.0900    -2.4050    -2.6950 ha         1 8C0       0.136000
     46 H6          -6.3390    -0.7730    -1.0370 h1         1 8C0       0.033700
     47 H7          -8.3110    -0.9050     0.2240 h1         1 8C0       0.029367
     48 H8          -7.8920    -2.5570     0.7110 h1         1 8C0       0.029367
     49 H9          -8.1700    -1.3150     1.9430 h1         1 8C0       0.029367
     50 H10         -3.7940    -1.0050     0.6260 hc         1 8C0       0.050200
     51 H11         -3.8680    -0.7370    -1.1010 hc         1 8C0       0.050200
     52 H12         -5.0520     1.4100    -0.7780 hc         1 8C0       0.044700
     53 H13         -5.1830     1.1100     0.9350 hc         1 8C0       0.044700
     54 H14         -2.8440     1.3200     1.3040 hc         1 8C0       0.046700
     55 H15         -2.4810     3.6810     0.7020 hc         1 8C0       0.038200
     56 H16         -3.7850     3.6170    -0.4600 hc         1 8C0       0.038200
     57 H17         -5.4280     3.2520     1.3440 hc         1 8C0       0.039200
     58 H18         -4.1440     3.0710     2.5220 hc         1 8C0       0.039200
     59 H19         -3.4390     5.4320     2.1040 hc         1 8C0       0.035700
     60 H20         -4.7080     5.6050     0.9130 hc         1 8C0       0.035700
     61 H21         -5.4380     6.5690     3.0910 hc         1 8C0       0.031033
     62 H22         -6.4390     5.1740     2.6980 hc         1 8C0       0.031033
     63 H23         -5.1540     5.0270     3.8920 hc         1 8C0       0.031033
     64 H24         -2.0290     0.2690    -0.7360 hc         1 8C0       0.048700
     65 H25         -2.4480     2.9010    -2.2260 hc         1 8C0       0.032033
     66 H26         -1.9140     1.3590    -2.8810 hc         1 8C0       0.032033
     67 H27         -3.5620     1.5430    -2.3310 hc         1 8C0       0.032033
     68 H28         -0.7740     2.9820    -0.2620 hc         1 8C0       0.044700
     69 H29         -0.6410     2.0870     1.8900 hc         1 8C0       0.041700
     70 H30         -0.8250     0.4360     1.3500 hc         1 8C0       0.041700
     71 H31         -0.2460    -0.1500    -2.3300 hc         1 8C0       0.034367
     72 H32          1.4700    -0.2410    -1.9660 hc         1 8C0       0.034367
     73 H33          0.2930    -0.5940    -0.7170 hc         1 8C0       0.034367
     74 H34         -0.0650     2.2390    -3.1690 hc         1 8C0       0.039700
     75 H35          0.5680     3.4760    -2.1060 hc         1 8C0       0.039700
     76 H36          2.1450     1.2440    -3.4790 hc         1 8C0       0.039200
     77 H37          2.2110     2.9500    -3.8430 hc         1 8C0       0.039200
     78 H38          4.1670     2.1900    -2.4890 hc         1 8C0       0.046700
     79 H39          3.2540     3.4730    -1.7260 hc         1 8C0       0.046700
     80 H40          1.5700     2.9540    -0.0210 hc         1 8C0       0.052700
     81 H41          1.6840     1.6470     1.9870 hc         1 8C0       0.044700
     82 H42          1.4620     0.1410     1.1200 hc         1 8C0       0.044700
     83 H43          3.5980     0.2910     0.7240 ha         1 8C0       0.123000
     84 H44          5.4740     0.9080    -1.6720 ha         1 8C0       0.120000
     85 H45          7.6000    -1.5930    -0.9840 hc         1 8C0       0.058450
     86 H46          7.5470    -0.0010    -1.7310 hc         1 8C0       0.058450
     87 H47          5.0430    -0.7210     1.6870 hc         1 8C0       0.058450
     88 H48          6.0480    -2.0400     1.0900 hc         1 8C0       0.058450
     89 H49          7.0420     0.5570     2.3110 h1         1 8C0       0.042200
     90 H50          7.5930    -0.8500     4.0090 ho         1 8C0       0.402500
     91 H51          9.2890    -2.1130     2.9070 ha         1 8C0       0.117500
     92 H52         10.3290    -1.7440     1.4350 ha         1 8C0       0.117500
     93 H53          9.5690    -0.4230    -0.3070 h1         1 8C0       0.042200
     94 H54          9.2950     1.5780     0.8360 ho         1 8C0       0.402500
@<TRIPOS>BOND
     1     1     2 1   
     2     1    41 1   
     3     2     3 ar  
     4     2     5 ar  
     5     3     4 ar  
     6     3    42 1   
     7     4     7 ar  
     8     4    43 1   
     9     5     6 ar  
    10     5    44 1   
    11     6     7 ar  
    12     6    45 1   
    13     7     8 1   
    14     8     9 1   
    15     8    11 1   
    16     8    46 1   
    17     9    10 1   
    18    10    47 1   
    19    10    48 1   
    20    10    49 1   
    21    11    12 1   
    22    11    50 1   
    23    11    51 1   
    24    12    13 1   
    25    12    52 1   
    26    12    53 1   
    27    13    14 1   
    28    13    18 1   
    29    13    54 1   
    30    14    15 1   
    31    14    55 1   
    32    14    56 1   
    33    15    16 1   
    34    15    57 1   
    35    15    58 1   
    36    16    17 1   
    37    16    59 1   
    38    16    60 1   
    39    17    61 1   
    40    17    62 1   
    41    17    63 1   
    42    18    19 1   
    43    18    20 1   
    44    18    64 1   
    45    19    65 1   
    46    19    66 1   
    47    19    67 1   
    48    20    21 1   
    49    20    22 1   
    50    20    68 1   
    51    21    28 1   
    52    21    69 1   
    53    21    70 1   
    54    22    23 1   
    55    22    24 1   
    56    22    27 1   
    57    23    71 1   
    58    23    72 1   
    59    23    73 1   
    60    24    25 1   
    61    24    74 1   
    62    24    75 1   
    63    25    26 1   
    64    25    76 1   
    65    25    77 1   
    66    26    29 1   
    67    26    78 1   
    68    26    79 1   
    69    27    28 1   
    70    27    29 1   
    71    27    80 1   
    72    28    81 1   
    73    28    82 1   
    74    29    30 2   
    75    30    31 1   
    76    30    83 1   
    77    31    32 2   
    78    31    84 1   
    79    32    33 1   
    80    32    34 1   
    81    33    39 1   
    82    33    85 1   
    83    33    86 1   
    84    34    35 1   
    85    34    87 1   
    86    34    88 1   
    87    35    36 1   
    88    35    37 1   
    89    35    89 1   
    90    36    90 1   
    91    37    38 2   
    92    37    39 1   
    93    38    91 1   
    94    38    92 1   
    95    39    40 1   
    96    39    93 1   
    97    40    94 1   
@<TRIPOS>SUBSTRUCTURE
     1 8C0         1 TEMP              0 ****  ****    0 ROOT
