@<TRIPOS>MOLECULE
8C0
   94    97     1     0     0
SMALL
No Charge or Current Charge


@<TRIPOS>ATOM
      1 O38         -5.4640    -6.7320    -1.8980 oh         1 8C0      -0.533100
      2 C32         -5.5670    -5.4330    -1.5020 ca         1 8C0       0.142100
      3 C31         -4.9580    -5.0220    -0.3080 ca         1 8C0      -0.179500
      4 C30         -5.0580    -3.6840     0.1100 ca         1 8C0      -0.056500
      5 C33         -6.2780    -4.5080    -2.2820 ca         1 8C0      -0.179500
      6 C34         -6.3800    -3.1690    -1.8670 ca         1 8C0      -0.056500
      7 C29         -5.7700    -2.7470    -0.6680 ca         1 8C0      -0.160300
      8 C21         -5.8850    -1.2870    -0.2240 c3         1 8C0       0.221600
      9 O39         -6.4550    -1.2310     1.0990 os         1 8C0      -0.452000
     10 C40         -7.8270    -1.6560     1.1960 c3         1 8C0       0.144900
     11 C20         -4.5080    -0.5830    -0.1780 c3         1 8C0      -0.069400
     12 C19         -4.5940     0.9470     0.0640 c3         1 8C0      -0.072400
     13 C18         -3.2290     1.6810     0.2940 c3         1 8C0      -0.052700
     14 C25         -3.4380     3.2160     0.5080 c3         1 8C0      -0.073400
     15 C26         -4.3620     3.6040     1.6890 c3         1 8C0      -0.078400
     16 C27         -4.3890     5.1250     1.9550 c3         1 8C0      -0.076400
     17 C28         -5.3140     5.5160     3.1240 c3         1 8C0      -0.088100
     18 C17         -2.1260     1.3650    -0.7970 c3         1 8C0      -0.046700
     19 C41         -2.5610     1.8510    -2.2060 c3         1 8C0      -0.085100
     20 C16         -0.6730     1.8300    -0.3910 c5         1 8C0      -0.053700
     21 C15         -0.2200     1.2640     1.0110 c5         1 8C0      -0.077400
     22 C23          0.5560     1.4550    -1.3190 c5         1 8C0      -0.036000
     23 C24          0.5830    -0.0700    -1.6910 c3         1 8C0      -0.078100
     24 C12          0.7010     2.2940    -2.6330 c6         1 8C0      -0.063400
     25 C11          2.0810     2.0820    -3.3150 c6         1 8C0      -0.071400
     26 C10          3.2740     2.3260    -2.3550 c6         1 8C0      -0.042200
     27 C22          1.6870     1.9150    -0.3340 c5         1 8C0      -0.036500
     28 C14          1.3330     1.1230     0.9530 c5         1 8C0      -0.071400
     29 C9           3.0730     1.6800    -0.9790 c2         1 8C0      -0.079400
     30 C8           4.0280     1.0260    -0.2580 ce         1 8C0      -0.190000
     31 C7           5.4260     0.8020    -0.6840 ce         1 8C0      -0.161000
     32 C6           6.3380    -0.0080    -0.0850 c2         1 8C0      -0.107400
     33 C1           7.7650    -0.1270    -0.6180 c6         1 8C0      -0.031700
     34 C5           6.0960    -0.8960     1.1380 c6         1 8C0      -0.031700
     35 C4           7.1190    -0.5860     2.2580 c6         1 8C0       0.211500
     36 O37          6.8930    -1.4530     3.3730 oh         1 8C0      -0.653000
     37 C3           8.5620    -0.7030     1.7380 c2         1 8C0      -0.199400
     38 C36          9.5320    -1.4490     2.3100 c2         1 8C0      -0.299000
     39 C2           8.8360     0.1170     0.4790 c6         1 8C0       0.211500
     40 O35          8.8960     1.4990     0.8340 oh         1 8C0      -0.653000
     41 H1          -5.9460    -6.8360    -2.7460 ho         1 8C0       0.464000
     42 H2          -4.4090    -5.7390     0.2970 ha         1 8C0       0.120500
     43 H3          -4.5870    -3.3760     1.0420 ha         1 8C0       0.118000
     44 H4          -6.7540    -4.8180    -3.2090 ha         1 8C0       0.120500
     45 H5          -6.9340    -2.4590    -2.4790 ha         1 8C0       0.118000
     46 H6          -6.5230    -0.7420    -0.9340 h1         1 8C0       0.033700
     47 H7          -8.4680    -1.0550     0.5380 h1         1 8C0       0.029367
     48 H8          -7.9350    -2.7120     0.9190 h1         1 8C0       0.029367
     49 H9          -8.1880    -1.5380     2.2250 h1         1 8C0       0.029367
     50 H10         -3.8860    -1.0430     0.5990 hc         1 8C0       0.050200
     51 H11         -4.0130    -0.7690    -1.1390 hc         1 8C0       0.050200
     52 H12         -5.1420     1.4130    -0.7630 hc         1 8C0       0.044700
     53 H13         -5.2160     1.0950     0.9540 hc         1 8C0       0.044700
     54 H14         -2.8600     1.2860     1.2470 hc         1 8C0       0.046700
     55 H15         -2.4690     3.6920     0.6910 hc         1 8C0       0.038200
     56 H16         -3.8350     3.6630    -0.4120 hc         1 8C0       0.038200
     57 H17         -5.3860     3.2720     1.4840 hc         1 8C0       0.039200
     58 H18         -4.0270     3.0860     2.5960 hc         1 8C0       0.039200
     59 H19         -3.3730     5.4760     2.1730 hc         1 8C0       0.035700
     60 H20         -4.7210     5.6470     1.0480 hc         1 8C0       0.035700
     61 H21         -5.3000     6.6020     3.2750 hc         1 8C0       0.031033
     62 H22         -6.3480     5.2120     2.9200 hc         1 8C0       0.031033
     63 H23         -4.9870     5.0360     4.0540 hc         1 8C0       0.031033
     64 H24         -2.0660     0.2750    -0.8620 hc         1 8C0       0.048700
     65 H25         -2.3380     2.9160    -2.3440 hc         1 8C0       0.032033
     66 H26         -2.0520     1.2770    -2.9850 hc         1 8C0       0.032033
     67 H27         -3.6320     1.7060    -2.3810 hc         1 8C0       0.032033
     68 H28         -0.7180     2.9230    -0.3340 hc         1 8C0       0.044700
     69 H29         -0.5280     1.9360     1.8200 hc         1 8C0       0.041700
     70 H30         -0.6740     0.2900     1.2270 hc         1 8C0       0.041700
     71 H31         -0.1200    -0.2900    -2.5020 hc         1 8C0       0.034367
     72 H32          1.5760    -0.3970    -2.0210 hc         1 8C0       0.034367
     73 H33          0.3010    -0.7170    -0.8530 hc         1 8C0       0.034367
     74 H34         -0.0760     2.0420    -3.3610 hc         1 8C0       0.039700
     75 H35          0.5720     3.3610    -2.4060 hc         1 8C0       0.039700
     76 H36          2.1430     1.0640    -3.7220 hc         1 8C0       0.039200
     77 H37          2.1680     2.7510    -4.1820 hc         1 8C0       0.039200
     78 H38          4.1840     1.9690    -2.8500 hc         1 8C0       0.046700
     79 H39          3.4050     3.4070    -2.2140 hc         1 8C0       0.046700
     80 H40          1.6010     2.9880    -0.1230 hc         1 8C0       0.052700
     81 H41          1.8170     1.5410     1.8430 hc         1 8C0       0.044700
     82 H42          1.6220     0.0670     0.8940 hc         1 8C0       0.044700
     83 H43          3.7920     0.6540     0.7320 ha         1 8C0       0.173000
     84 H44          5.7560     1.3660    -1.5550 ha         1 8C0       0.170000
     85 H45          7.9040    -1.1360    -1.0290 hc         1 8C0       0.058450
     86 H46          7.9340     0.5630    -1.4570 hc         1 8C0       0.058450
     87 H47          5.0820    -0.7980     1.5380 hc         1 8C0       0.058450
     88 H48          6.1970    -1.9480     0.8380 hc         1 8C0       0.058450
     89 H49          6.9560     0.4550     2.5750 h1         1 8C0       0.042200
     90 H50          7.5530    -1.1930     4.0500 ho         1 8C0       0.441500
     91 H51          9.3690    -2.0520     3.2030 ha         1 8C0       0.167500
     92 H52         10.5390    -1.4900     1.8930 ha         1 8C0       0.167500
     93 H53          9.8080    -0.1880     0.0600 h1         1 8C0       0.042200
     94 H54          9.5200     1.5520     1.5900 ho         1 8C0       0.441500
@<TRIPOS>BOND
     1     1     2 1   
     2     1    41 1   
     3     2     3 ar  
     4     2     5 ar  
     5     3     4 ar  
     6     3    42 1   
     7     4     7 ar  
     8     4    43 1   
     9     5     6 ar  
    10     5    44 1   
    11     6     7 ar  
    12     6    45 1   
    13     7     8 1   
    14     8     9 1   
    15     8    11 1   
    16     8    46 1   
    17     9    10 1   
    18    10    47 1   
    19    10    48 1   
    20    10    49 1   
    21    11    12 1   
    22    11    50 1   
    23    11    51 1   
    24    12    13 1   
    25    12    52 1   
    26    12    53 1   
    27    13    14 1   
    28    13    18 1   
    29    13    54 1   
    30    14    15 1   
    31    14    55 1   
    32    14    56 1   
    33    15    16 1   
    34    15    57 1   
    35    15    58 1   
    36    16    17 1   
    37    16    59 1   
    38    16    60 1   
    39    17    61 1   
    40    17    62 1   
    41    17    63 1   
    42    18    19 1   
    43    18    20 1   
    44    18    64 1   
    45    19    65 1   
    46    19    66 1   
    47    19    67 1   
    48    20    21 1   
    49    20    22 1   
    50    20    68 1   
    51    21    28 1   
    52    21    69 1   
    53    21    70 1   
    54    22    23 1   
    55    22    24 1   
    56    22    27 1   
    57    23    71 1   
    58    23    72 1   
    59    23    73 1   
    60    24    25 1   
    61    24    74 1   
    62    24    75 1   
    63    25    26 1   
    64    25    76 1   
    65    25    77 1   
    66    26    29 1   
    67    26    78 1   
    68    26    79 1   
    69    27    28 1   
    70    27    29 1   
    71    27    80 1   
    72    28    81 1   
    73    28    82 1   
    74    29    30 2   
    75    30    31 1   
    76    30    83 1   
    77    31    32 2   
    78    31    84 1   
    79    32    33 1   
    80    32    34 1   
    81    33    39 1   
    82    33    85 1   
    83    33    86 1   
    84    34    35 1   
    85    34    87 1   
    86    34    88 1   
    87    35    36 1   
    88    35    37 1   
    89    35    89 1   
    90    36    90 1   
    91    37    38 2   
    92    37    39 1   
    93    38    91 1   
    94    38    92 1   
    95    39    40 1   
    96    39    93 1   
    97    40    94 1   
@<TRIPOS>SUBSTRUCTURE
     1 8C0         1 TEMP              0 ****  ****    0 ROOT
