@<TRIPOS>MOLECULE
8C1
   47    49     1     0     0
SMALL
No Charge or Current Charge


@<TRIPOS>ATOM
      1 C7           8.2680   -16.5300    18.0250 ca         1 8C1      -0.051000
      2 C6           7.3070   -16.4480    19.0550 ca         1 8C1      -0.179000
      3 C9           9.5420   -17.7740    16.3840 ca         1 8C1      -0.273000
      4 C13          8.6340   -14.1430    18.2170 ca         1 8C1      -0.009000
      5 C20          7.2740   -21.2680    17.8660 c6         1 8C1      -0.073400
      6 C21          7.1940   -21.4150    19.4090 c6         1 8C1      -0.071400
      7 C8           8.5790   -17.7640    17.4100 ca         1 8C1       0.192100
      8 C19          8.3560   -20.2380    17.4540 c6         1 8C1       0.178300
      9 C2           5.1310   -16.2020    21.0160 c3         1 8C1       0.182300
     10 C3           4.0770   -16.3070    19.8910 c3         1 8C1      -0.109100
     11 C5           6.9940   -15.2150    19.6680 ca         1 8C1       0.164100
     12 C10         10.1610   -16.5740    16.0240 ca         1 8C1       0.371900
     13 N11          9.8740   -15.3950    16.6130 nb         1 8C1      -0.665000
     14 C12          8.9430   -15.3650    17.5960 ca         1 8C1       0.247000
     15 C14          7.6720   -14.0380    19.2500 ca         1 8C1      -0.157600
     16 C15          7.4280   -12.6620    19.8410 c          1 8C1       0.614700
     17 O16          8.0250   -11.6710    19.4530 o          1 8C1      -0.625100
     18 N17          6.5240   -12.5090    20.8260 nt         1 8C1      -0.599000
     19 O18          7.9090   -18.9080    17.8130 os         1 8C1      -0.339100
     20 C22          8.5790   -21.7680    20.0090 c6         1 8C1       0.157800
     21 N23          9.6060   -20.7720    19.6200 n7         1 8C1      -0.855400
     22 C24          9.7180   -20.6040    18.1400 c6         1 8C1       0.134800
     23 HC6          6.8150   -17.3590    19.3770 ha         1 8C1       0.135000
     24 HC9          9.8200   -18.6780    15.8550 ha         1 8C1       0.121000
     25 HC13         9.1640   -13.2570    17.8780 ha         1 8C1       0.161000
     26 H20A         7.5080   -22.2420    17.4160 hc         1 8C1       0.053200
     27 H21B         6.8270   -20.4810    19.8560 hc         1 8C1       0.052200
     28 H21A         6.4670   -22.1950    19.6740 hc         1 8C1       0.052200
     29 HC19         8.4660   -20.2870    16.3620 h1         1 8C1       0.050700
     30 HC1B         3.7800   -16.5820    22.6840 hc         1 8C1       0.049700
     31 HC1A         5.2720   -15.7340    23.1400 hc         1 8C1       0.049700
     32 HC1C         3.9740   -14.8580    22.2940 hc         1 8C1       0.049700
     33 HC2          5.6470   -17.1620    21.1470 h1         1 8C1       0.053700
     34 HC3A         3.3150   -17.0510    20.1520 hc         1 8C1       0.049700
     35 HC3C         3.5760   -15.3440    19.7370 hc         1 8C1       0.049700
     36 HC3B         4.5320   -16.6140    18.9430 hc         1 8C1       0.049700
     37 HC10        10.9110   -16.5510    15.2340 h4         1 8C1       0.016100
     38 H17B         6.3620   -11.5950    21.2190 hn         1 8C1       0.326500
     39 H17A         6.0230   -13.3210    21.1590 hn         1 8C1       0.326500
     40 H22B         8.5060   -21.8100    21.1050 h1         1 8C1       0.031200
     41 H22A         8.8860   -22.7640    19.6570 h1         1 8C1       0.031200
     42 HN23        10.5170   -21.0660    19.9960 hn         1 8C1       0.416000
     43 H24B        10.0870   -21.5440    17.7020 h1         1 8C1       0.042200
     44 H24A        10.4690   -19.8330    17.9180 h1         1 8C1       0.042200
     45 O4           6.0540   -15.1440    20.6830 os         1 8C1      -0.391100
     46 H20B         6.2970   -20.9670    17.4640 hc         1 8C1       0.053200
     47 C1           4.5000   -15.8180    22.3660 c3         1 8C1      -0.109100
@<TRIPOS>BOND
     1     1     2 ar  
     2     1     7 ar  
     3     1    14 ar  
     4     2    11 ar  
     5     2    23 1   
     6     3     7 ar  
     7     3    12 ar  
     8     3    24 1   
     9     4    14 ar  
    10     4    15 ar  
    11     4    25 1   
    12     5     6 1   
    13     5     8 1   
    14     5    26 1   
    15     5    46 1   
    16     6    20 1   
    17     6    27 1   
    18     6    28 1   
    19     7    19 1   
    20     8    19 1   
    21     8    22 1   
    22     8    29 1   
    23     9    10 1   
    24     9    33 1   
    25     9    45 1   
    26     9    47 1   
    27    10    34 1   
    28    10    35 1   
    29    10    36 1   
    30    11    15 ar  
    31    11    45 1   
    32    12    13 ar  
    33    12    37 1   
    34    13    14 ar  
    35    15    16 1   
    36    16    17 2   
    37    16    18 1   
    38    18    38 1   
    39    18    39 1   
    40    20    21 1   
    41    20    40 1   
    42    20    41 1   
    43    21    22 1   
    44    21    42 1   
    45    22    43 1   
    46    22    44 1   
    47    30    47 1   
    48    31    47 1   
    49    32    47 1   
@<TRIPOS>SUBSTRUCTURE
     1 8C1         1 TEMP              0 ****  ****    0 ROOT
