@<TRIPOS>MOLECULE
8C1
   47    49     1     0     0
SMALL
abcg2


@<TRIPOS>ATOM
      1 C7           8.2960   -16.5280    18.0680 ca         1 8C1      -0.051000
      2 C6           7.3030   -16.4410    19.0620 ca         1 8C1      -0.179000
      3 C9           9.6710   -17.7580    16.5160 ca         1 8C1      -0.273000
      4 C13          8.5580   -14.1260    18.1810 ca         1 8C1      -0.009000
      5 C20          7.2340   -21.0880    17.7910 c6         1 8C1      -0.073400
      6 C21          7.0620   -21.3230    19.2950 c6         1 8C1      -0.071400
      7 C8           8.6890   -17.7720    17.4830 ca         1 8C1       0.192100
      8 C19          8.4190   -20.1810    17.4870 c6         1 8C1       0.178300
      9 C2           5.2460   -16.2320    21.0580 c3         1 8C1       0.182300
     10 C3           4.1790   -16.6420    20.0580 c3         1 8C1      -0.109100
     11 C5           6.9440   -15.2240    19.6050 ca         1 8C1       0.164100
     12 C10         10.2410   -16.5240    16.1420 ca         1 8C1       0.371900
     13 N11          9.9160   -15.3580    16.6510 nb         1 8C1      -0.665000
     14 C12          8.9450   -15.3530    17.6130 ca         1 8C1       0.247000
     15 C14          7.5880   -14.0250    19.1540 ca         1 8C1      -0.157600
     16 C15          7.3160   -12.6280    19.6560 c          1 8C1       0.614700
     17 O16          7.8620   -11.6590    19.1220 o          1 8C1      -0.625100
     18 N17          6.4910   -12.4790    20.7060 nt         1 8C1      -0.599000
     19 O18          8.0360   -18.8540    17.9300 os         1 8C1      -0.339100
     20 C22          8.3750   -21.7860    19.9150 c6         1 8C1       0.157800
     21 N23          9.4230   -20.8010    19.6400 n7         1 8C1      -0.855400
     22 C24          9.6770   -20.6540    18.2100 c6         1 8C1       0.134800
     23 HC6          6.8230   -17.3510    19.3810 ha         1 8C1       0.135000
     24 HC9         10.0170   -18.6590    16.0370 ha         1 8C1       0.121000
     25 HC13         9.0460   -13.2230    17.8440 ha         1 8C1       0.161000
     26 H20A         7.4250   -22.0440    17.2950 hc         1 8C1       0.053200
     27 H21B         6.7430   -20.3980    19.7800 hc         1 8C1       0.052200
     28 H21A         6.2830   -22.0690    19.4680 hc         1 8C1       0.052200
     29 HC19         8.5940   -20.1500    16.4110 h1         1 8C1       0.050700
     30 HC1B         4.1060   -16.6100    22.8340 hc         1 8C1       0.049700
     31 HC1A         5.4580   -15.4900    23.0740 hc         1 8C1       0.049700
     32 HC1C         3.9870   -14.9440    22.2440 hc         1 8C1       0.049700
     33 HC2          5.9520   -17.0460    21.2280 h1         1 8C1       0.053700
     34 HC3A         3.6160   -17.4900    20.4520 hc         1 8C1       0.049700
     35 HC3C         3.4860   -15.8150    19.8900 hc         1 8C1       0.049700
     36 HC3B         4.6080   -16.9360    19.1000 hc         1 8C1       0.049700
     37 HC10        11.0110   -16.5240    15.3760 h4         1 8C1       0.016100
     38 H17B         6.2960   -11.5450    21.0320 hn         1 8C1       0.326500
     39 H17A         6.0100   -13.2700    21.1040 hn         1 8C1       0.326500
     40 H22B         8.2730   -21.8900    20.9970 h1         1 8C1       0.031200
     41 H22A         8.6330   -22.7800    19.5100 h1         1 8C1       0.031200
     42 HN23        10.2820   -21.0700    20.1050 hn         1 8C1       0.416000
     43 H24B         9.9740   -21.6020    17.7320 h1         1 8C1       0.042200
     44 H24A        10.4890   -19.9430    18.0660 h1         1 8C1       0.042200
     45 O4           5.9890   -15.0880    20.5570 os         1 8C1      -0.391100
     46 H20B         6.3310   -20.6650    17.3490 hc         1 8C1       0.053200
     47 C1           4.6660   -15.7870    22.3860 c3         1 8C1      -0.109100
@<TRIPOS>BOND
     1     1     2 ar  
     2     1     7 ar  
     3     1    14 ar  
     4     2    11 ar  
     5     2    23 1   
     6     3     7 ar  
     7     3    12 ar  
     8     3    24 1   
     9     4    14 ar  
    10     4    15 ar  
    11     4    25 1   
    12     5     6 1   
    13     5     8 1   
    14     5    26 1   
    15     5    46 1   
    16     6    20 1   
    17     6    27 1   
    18     6    28 1   
    19     7    19 1   
    20     8    19 1   
    21     8    22 1   
    22     8    29 1   
    23     9    10 1   
    24     9    33 1   
    25     9    45 1   
    26     9    47 1   
    27    10    34 1   
    28    10    35 1   
    29    10    36 1   
    30    11    15 ar  
    31    11    45 1   
    32    12    13 ar  
    33    12    37 1   
    34    13    14 ar  
    35    15    16 1   
    36    16    17 2   
    37    16    18 1   
    38    18    38 1   
    39    18    39 1   
    40    20    21 1   
    41    20    40 1   
    42    20    41 1   
    43    21    22 1   
    44    21    42 1   
    45    22    43 1   
    46    22    44 1   
    47    30    47 1   
    48    31    47 1   
    49    32    47 1   
@<TRIPOS>SUBSTRUCTURE
     1 8C1         1 TEMP              0 ****  ****    0 ROOT
