@<TRIPOS>MOLECULE
8C2
   36    37     1     0     0
SMALL
abcg2


@<TRIPOS>ATOM
      1 C10         -0.6970     4.1120    -8.6510 c6         1 8C2       0.167500
      2 C13         -0.8530     4.2400    -5.6920 c6         1 8C2      -0.075400
      3 C15         -1.2100     2.9370    -7.8220 c6         1 8C2      -0.088400
      4 C02          1.0870     3.4280   -12.0750 cc         1 8C2      -0.111300
      5 N03          2.4290     3.4390   -12.1280 na         1 8C2      -0.006200
      6 N04          2.9790     4.4640   -11.4780 nc         1 8C2      -0.527800
      7 C05          1.9560     5.1400   -10.9810 cd         1 8C2       0.263300
      8 C06          2.1670     6.3680   -10.1610 c3         1 8C2      -0.121400
      9 C07          0.7290     4.5350   -11.3300 cd         1 8C2      -0.208300
     10 C08         -0.6570     4.9520   -10.9640 c3         1 8C2       0.252100
     11 N09         -1.2630     4.0500    -9.9910 n7         1 8C2      -0.867400
     12 C11         -0.9580     5.4260    -7.9090 c6         1 8C2      -0.088400
     13 C12         -0.3420     5.4190    -6.5130 c6         1 8C2      -0.071400
     14 C14         -0.6070     2.9240    -6.4200 c6         1 8C2      -0.071400
     15 H1           0.3890     3.9920    -8.7580 h1         1 8C2       0.067700
     16 H2          -1.9270     4.3630    -5.5160 hc         1 8C2       0.037200
     17 H3          -0.3770     4.2250    -4.7080 hc         1 8C2       0.037200
     18 H4          -2.3020     3.0030    -7.7460 hc         1 8C2       0.039200
     19 H5          -0.9870     2.0020    -8.3420 hc         1 8C2       0.039200
     20 H6          -0.3200     1.8270   -11.9830 hc         1 8C2       0.052033
     21 H7          -0.4670     2.8360   -13.4110 hc         1 8C2       0.052033
     22 H8           0.8550     1.6770   -13.2910 hc         1 8C2       0.052033
     23 H9           3.0190     2.7730   -12.6020 hn         1 8C2       0.367000
     24 H10          3.2220     6.6390   -10.1360 hc         1 8C2       0.045367
     25 H11          1.6100     7.2170   -10.5590 hc         1 8C2       0.045367
     26 H12          1.8360     6.2220    -9.1310 hc         1 8C2       0.045367
     27 H13         -0.6370     6.0010   -10.6360 h1         1 8C2       0.031700
     28 H14         -1.2920     4.9310   -11.8540 h1         1 8C2       0.031700
     29 H15         -2.2560     4.2470    -9.9370 hn         1 8C2       0.405000
     30 H17         -0.5700     6.2740    -8.4800 hc         1 8C2       0.039200
     31 H18         -2.0420     5.5740    -7.8280 hc         1 8C2       0.039200
     32 H19          0.7490     5.3530    -6.6020 hc         1 8C2       0.038950
     33 H20         -0.5540     6.3610    -6.0030 hc         1 8C2       0.038950
     34 H21         -1.0140     2.0880    -5.8450 hc         1 8C2       0.038950
     35 H22          0.4720     2.7510    -6.4950 hc         1 8C2       0.038950
     36 C01          0.2510     2.3850   -12.7250 c3         1 8C2      -0.029800
@<TRIPOS>BOND
     1     1     3 1   
     2     1    11 1   
     3     1    12 1   
     4     1    15 1   
     5     2    13 1   
     6     2    14 1   
     7     2    16 1   
     8     2    17 1   
     9     3    14 1   
    10     3    18 1   
    11     3    19 1   
    12     4     5 1   
    13     4     9 2   
    14     4    36 1   
    15     5     6 1   
    16     5    23 1   
    17     6     7 2   
    18     7     8 1   
    19     7     9 1   
    20     8    24 1   
    21     8    25 1   
    22     8    26 1   
    23     9    10 1   
    24    10    11 1   
    25    10    27 1   
    26    10    28 1   
    27    11    29 1   
    28    12    13 1   
    29    12    30 1   
    30    12    31 1   
    31    13    32 1   
    32    13    33 1   
    33    14    34 1   
    34    14    35 1   
    35    20    36 1   
    36    21    36 1   
    37    22    36 1   
@<TRIPOS>SUBSTRUCTURE
     1 8C2         1 TEMP              0 ****  ****    0 ROOT
