@<TRIPOS>MOLECULE
8C2
   36    37     1     0     0
SMALL
No Charge or Current Charge


@<TRIPOS>ATOM
      1 C10         -0.6780     4.1220    -8.6580 c6         1 8C2       0.167500
      2 C13         -0.8350     4.2170    -5.6650 c6         1 8C2      -0.075400
      3 C15         -1.2320     2.9290    -7.8380 c6         1 8C2      -0.088400
      4 C02          1.0940     3.3940   -12.0840 cc         1 8C2      -0.111300
      5 N03          2.4860     3.4200   -12.0820 na         1 8C2      -0.006200
      6 N04          3.0190     4.4960   -11.3940 nc         1 8C2      -0.527800
      7 C05          1.9420     5.1330   -10.9720 cd         1 8C2       0.263300
      8 C06          2.0850     6.3890   -10.1530 c3         1 8C2      -0.121400
      9 C07          0.7360     4.5020   -11.3640 cd         1 8C2      -0.208300
     10 C08         -0.6650     4.9660   -11.0490 c3         1 8C2       0.252100
     11 N09         -1.2960     4.1400   -10.0020 n7         1 8C2      -0.867400
     12 C11         -0.9220     5.4570    -7.8990 c6         1 8C2      -0.088400
     13 C12         -0.2980     5.4180    -6.4820 c6         1 8C2      -0.071400
     14 C14         -0.6100     2.8830    -6.4190 c6         1 8C2      -0.071400
     15 H1           0.4090     3.9720    -8.7630 h1         1 8C2       0.067700
     16 H2          -1.9070     4.3540    -5.4680 hc         1 8C2       0.037200
     17 H3          -0.3400     4.1800    -4.6860 hc         1 8C2       0.037200
     18 H4          -2.3260     3.0040    -7.7570 hc         1 8C2       0.039200
     19 H5          -1.0200     1.9870    -8.3600 hc         1 8C2       0.039200
     20 H6          -0.4070     1.8520   -12.0130 hc         1 8C2       0.052033
     21 H7          -0.4000     2.7930   -13.5150 hc         1 8C2       0.052033
     22 H8           0.8540     1.5730   -13.2270 hc         1 8C2       0.052033
     23 H9           3.0920     2.7340   -12.5310 hn         1 8C2       0.367000
     24 H10          3.0900     6.8190   -10.2480 hc         1 8C2       0.045367
     25 H11          1.3690     7.1540   -10.4740 hc         1 8C2       0.045367
     26 H12          1.9100     6.1820    -9.0920 hc         1 8C2       0.045367
     27 H13         -0.6480     6.0230   -10.7540 h1         1 8C2       0.031700
     28 H14         -1.2580     4.9060   -11.9720 h1         1 8C2       0.031700
     29 H15         -2.2730     4.4370    -9.9050 hn         1 8C2       0.405000
     30 H17         -0.4950     6.3010    -8.4560 hc         1 8C2       0.039200
     31 H18         -2.0000     5.6510    -7.8190 hc         1 8C2       0.039200
     32 H19          0.7970     5.3520    -6.5620 hc         1 8C2       0.038950
     33 H20         -0.5150     6.3560    -5.9520 hc         1 8C2       0.038950
     34 H21         -1.0470     2.0540    -5.8470 hc         1 8C2       0.038950
     35 H22          0.4670     2.6780    -6.4940 hc         1 8C2       0.038950
     36 C01          0.2410     2.3450   -12.7470 c3         1 8C2      -0.029800
@<TRIPOS>BOND
     1     1     3 1   
     2     1    11 1   
     3     1    12 1   
     4     1    15 1   
     5     2    13 1   
     6     2    14 1   
     7     2    16 1   
     8     2    17 1   
     9     3    14 1   
    10     3    18 1   
    11     3    19 1   
    12     4     5 1   
    13     4     9 2   
    14     4    36 1   
    15     5     6 1   
    16     5    23 1   
    17     6     7 2   
    18     7     8 1   
    19     7     9 1   
    20     8    24 1   
    21     8    25 1   
    22     8    26 1   
    23     9    10 1   
    24    10    11 1   
    25    10    27 1   
    26    10    28 1   
    27    11    29 1   
    28    12    13 1   
    29    12    30 1   
    30    12    31 1   
    31    13    32 1   
    32    13    33 1   
    33    14    34 1   
    34    14    35 1   
    35    20    36 1   
    36    21    36 1   
    37    22    36 1   
@<TRIPOS>SUBSTRUCTURE
     1 8C2         1 TEMP              0 ****  ****    0 ROOT
