@<TRIPOS>MOLECULE
8C3
   51    53     1     0     0
SMALL
abcg2


@<TRIPOS>ATOM
      1 C1           2.9430    -0.5700    -0.4760 cc         1 8C3      -0.212600
      2 C2           1.5710    -0.3700    -0.8780 c          1 8C3       0.592600
      3 C3           3.1090     1.7800     0.0120 cc         1 8C3       0.449800
      4 O1           0.8300    -1.2680    -1.2480 o          1 8C3      -0.526000
      5 O2          -0.6970     0.4840     1.1040 o          1 8C3      -0.591100
      6 C11          3.9180     2.9190     0.5150 c3         1 8C3      -0.123400
      7 C12         -4.8030     0.2190    -0.0800 c3         1 8C3      -0.097400
      8 C13         -3.4560     0.3400     0.6130 c3         1 8C3       0.104000
      9 C14         -5.8810    -0.2330     0.8960 c3         1 8C3       0.174800
     10 C15         -8.0340    -1.3180     0.9210 c3         1 8C3       0.171300
     11 C16         -7.8420     0.9800     0.2040 c3         1 8C3       0.171300
     12 C17         -7.6750    -2.7400     0.5210 c3         1 8C3      -0.089600
     13 C18         -8.9010     1.0560    -0.8840 c3         1 8C3      -0.089600
     14 N1           3.6830     0.5250    -0.0470 na         1 8C3       0.034200
     15 C4           3.7070    -1.7070    -0.4190 cd         1 8C3      -0.044000
     16 N2           1.1650     0.9330    -0.8280 n          1 8C3      -0.138800
     17 C5           4.9350     0.0860     0.2860 cc         1 8C3      -0.098000
     18 N3           1.9010     1.9670    -0.3560 n2         1 8C3      -0.470300
     19 C6           4.9620    -1.2860     0.0610 cd         1 8C3      -0.227000
     20 C7          -0.2090     1.2380    -1.1250 c3         1 8C3       0.032000
     21 C8           6.1590     0.6190     0.7750 cc         1 8C3      -0.117000
     22 S1           6.5020    -1.9410     0.4530 ss         1 8C3       0.221000
     23 C9          -1.1280     0.7660    -0.0020 c          1 8C3       0.585100
     24 C10          7.0790    -0.3720     0.9080 cd         1 8C3      -0.209000
     25 N4          -2.4220     0.7120    -0.3320 ns         1 8C3      -0.504900
     26 N5          -7.1930    -0.3220     0.2750 n3         1 8C3      -0.731600
     27 H1           3.3130     3.8210     0.5110 hc         1 8C3       0.066700
     28 H2           4.2620     2.7390     1.5350 hc         1 8C3       0.066700
     29 H3           4.7950     3.0900    -0.1110 hc         1 8C3       0.066700
     30 H4          -5.0680     1.1820    -0.5260 hc         1 8C3       0.051200
     31 H5          -4.7390    -0.5060    -0.8960 hc         1 8C3       0.051200
     32 H6          -3.5150     1.0780     1.4180 h1         1 8C3       0.051200
     33 H7          -3.1910    -0.6140     1.0770 h1         1 8C3       0.051200
     34 H8          -5.6000    -1.2180     1.2740 h1         1 8C3       0.033700
     35 H9          -5.8960     0.4350     1.7740 h1         1 8C3       0.033700
     36 H10         -9.0700    -1.1370     0.6300 h1         1 8C3       0.028200
     37 H11         -8.0080    -1.2160     2.0180 h1         1 8C3       0.028200
     38 H12         -7.0800     1.7320    -0.0090 h1         1 8C3       0.028200
     39 H13         -8.2790     1.2630     1.1750 h1         1 8C3       0.028200
     40 H14         -8.3390    -3.4520     1.0120 hc         1 8C3       0.036867
     41 H15         -7.7750    -2.8720    -0.5570 hc         1 8C3       0.036867
     42 H16         -6.6540    -3.0060     0.7980 hc         1 8C3       0.036867
     43 H17         -8.4650     0.8450    -1.8610 hc         1 8C3       0.036867
     44 H18         -9.7160     0.3520    -0.7190 hc         1 8C3       0.036867
     45 H19         -9.3380     2.0550    -0.9180 hc         1 8C3       0.036867
     46 H20          3.3910    -2.7010    -0.6900 ha         1 8C3       0.160000
     47 H21         -0.2920     2.3200    -1.2280 h1         1 8C3       0.082200
     48 H22         -0.5000     0.7960    -2.0780 h1         1 8C3       0.082200
     49 H23          6.3630     1.6510     1.0130 ha         1 8C3       0.138000
     50 H24          8.0940    -0.2660     1.2580 h4         1 8C3       0.150000
     51 H25         -2.7020     0.9790    -1.2630 hn         1 8C3       0.313500
@<TRIPOS>BOND
     1     1     2 1   
     2     1    14 1   
     3     1    15 2   
     4     2     4 2   
     5     2    16 1   
     6     3     6 1   
     7     3    14 1   
     8     3    18 2   
     9     5    23 2   
    10     6    27 1   
    11     6    28 1   
    12     6    29 1   
    13     7     8 1   
    14     7     9 1   
    15     7    30 1   
    16     7    31 1   
    17     8    25 1   
    18     8    32 1   
    19     8    33 1   
    20     9    26 1   
    21     9    34 1   
    22     9    35 1   
    23    10    12 1   
    24    10    26 1   
    25    10    36 1   
    26    10    37 1   
    27    11    13 1   
    28    11    26 1   
    29    11    38 1   
    30    11    39 1   
    31    12    40 1   
    32    12    41 1   
    33    12    42 1   
    34    13    43 1   
    35    13    44 1   
    36    13    45 1   
    37    14    17 1   
    38    15    19 1   
    39    15    46 1   
    40    16    18 1   
    41    16    20 1   
    42    17    19 2   
    43    17    21 1   
    44    19    22 1   
    45    20    23 1   
    46    20    47 1   
    47    20    48 1   
    48    21    24 2   
    49    21    49 1   
    50    22    24 1   
    51    23    25 1   
    52    24    50 1   
    53    25    51 1   
@<TRIPOS>SUBSTRUCTURE
     1 8C3         1 TEMP              0 ****  ****    0 ROOT
