@<TRIPOS>MOLECULE
8C3
   51    53     1     0     0
SMALL
No Charge or Current Charge


@<TRIPOS>ATOM
      1 C1           3.2570    -0.5080    -0.5640 cc         1 8C3      -0.212600
      2 C2           1.8670    -0.4640    -0.9630 c          1 8C3       0.592600
      3 C3           3.2700     1.7720     0.1650 cc         1 8C3       0.449800
      4 O1           1.2620    -1.4030    -1.4680 o          1 8C3      -0.526000
      5 O2          -0.7260    -0.2910     1.0080 o          1 8C3      -0.591100
      6 C11          3.9870     2.9710     0.7250 c3         1 8C3      -0.123400
      7 C12         -4.9090     0.1790    -0.0820 c3         1 8C3      -0.097400
      8 C13         -3.5250    -0.1590     0.5010 c3         1 8C3       0.104000
      9 C14         -6.0630    -0.4130     0.7620 c3         1 8C3       0.174800
     10 C15         -8.4460    -1.0990     0.9040 c3         1 8C3       0.171300
     11 C16         -7.8430     1.0830    -0.1160 c3         1 8C3       0.171300
     12 C17         -8.1750    -2.6140     1.0250 c3         1 8C3      -0.089600
     13 C18         -9.1410     1.2430    -0.9360 c3         1 8C3      -0.089600
     14 N1           3.9290     0.5430     0.0110 na         1 8C3       0.034200
     15 C4           4.1800    -1.5390    -0.6580 cd         1 8C3      -0.044000
     16 N2           1.2890     0.8210    -0.6920 n          1 8C3      -0.138800
     17 C5           5.2580     0.2420     0.2680 cc         1 8C3      -0.098000
     18 N3           1.9990     1.9450    -0.1810 n2         1 8C3      -0.470300
     19 C6           5.3950    -1.0230    -0.1320 cd         1 8C3      -0.227000
     20 C7          -0.1540     0.9810    -0.9970 c3         1 8C3       0.032000
     21 C8           6.4100     0.8640     0.7990 cc         1 8C3      -0.117000
     22 S1           7.0300    -1.6320     0.1040 ss         1 8C3       0.221000
     23 C9          -1.1050     0.3000     0.0040 c          1 8C3       0.585100
     24 C10          7.4750    -0.0210     0.7830 cd         1 8C3      -0.209000
     25 N4          -2.4440     0.4080    -0.3070 ns         1 8C3      -0.504900
     26 N5          -7.4200    -0.3240     0.1450 n3         1 8C3      -0.731600
     27 H1           3.3260     3.8450     0.7810 hc         1 8C3       0.066700
     28 H2           4.3470     2.7690     1.7400 hc         1 8C3       0.066700
     29 H3           4.8380     3.2450     0.0930 hc         1 8C3       0.066700
     30 H4          -5.0040     1.2690    -0.1360 hc         1 8C3       0.051200
     31 H5          -4.9750    -0.2130    -1.1040 hc         1 8C3       0.051200
     32 H6          -3.4500     0.2380     1.5220 h1         1 8C3       0.051200
     33 H7          -3.3990    -1.2490     0.5440 h1         1 8C3       0.051200
     34 H8          -5.8040    -1.4650     0.9330 h1         1 8C3       0.033700
     35 H9          -6.0650     0.0770     1.7460 h1         1 8C3       0.033700
     36 H10         -9.4200    -1.0090     0.4090 h1         1 8C3       0.028200
     37 H11         -8.5620    -0.6820     1.9140 h1         1 8C3       0.028200
     38 H12         -7.0660     1.6060    -0.6860 h1         1 8C3       0.028200
     39 H13         -7.9600     1.6240     0.8330 h1         1 8C3       0.028200
     40 H14         -9.0580    -3.1190     1.4340 hc         1 8C3       0.036867
     41 H15         -7.9580    -3.0490     0.0420 hc         1 8C3       0.036867
     42 H16         -7.3350    -2.8210     1.6980 hc         1 8C3       0.036867
     43 H17         -9.0990     0.6380    -1.8500 hc         1 8C3       0.036867
     44 H18        -10.0230     0.9490    -0.3560 hc         1 8C3       0.036867
     45 H19         -9.2720     2.2920    -1.2270 hc         1 8C3       0.036867
     46 H20          4.0080    -2.5340    -1.0630 ha         1 8C3       0.160000
     47 H21         -0.4050     2.0480    -1.0140 h1         1 8C3       0.082200
     48 H22         -0.3660     0.5770    -1.9940 h1         1 8C3       0.082200
     49 H23          6.4590     1.8820     1.1690 ha         1 8C3       0.138000
     50 H24          8.4880     0.1540     1.1220 h4         1 8C3       0.150000
     51 H25         -2.6850     0.9130    -1.1530 hn         1 8C3       0.313500
@<TRIPOS>BOND
     1     1     2 1   
     2     1    14 1   
     3     1    15 2   
     4     2     4 2   
     5     2    16 1   
     6     3     6 1   
     7     3    14 1   
     8     3    18 2   
     9     5    23 2   
    10     6    27 1   
    11     6    28 1   
    12     6    29 1   
    13     7     8 1   
    14     7     9 1   
    15     7    30 1   
    16     7    31 1   
    17     8    25 1   
    18     8    32 1   
    19     8    33 1   
    20     9    26 1   
    21     9    34 1   
    22     9    35 1   
    23    10    12 1   
    24    10    26 1   
    25    10    36 1   
    26    10    37 1   
    27    11    13 1   
    28    11    26 1   
    29    11    38 1   
    30    11    39 1   
    31    12    40 1   
    32    12    41 1   
    33    12    42 1   
    34    13    43 1   
    35    13    44 1   
    36    13    45 1   
    37    14    17 1   
    38    15    19 1   
    39    15    46 1   
    40    16    18 1   
    41    16    20 1   
    42    17    19 2   
    43    17    21 1   
    44    19    22 1   
    45    20    23 1   
    46    20    47 1   
    47    20    48 1   
    48    21    24 2   
    49    21    49 1   
    50    22    24 1   
    51    23    25 1   
    52    24    50 1   
    53    25    51 1   
@<TRIPOS>SUBSTRUCTURE
     1 8C3         1 TEMP              0 ****  ****    0 ROOT
