@<TRIPOS>MOLECULE
8C5
   70    74     1     0     0
SMALL
No Charge or Current Charge


@<TRIPOS>ATOM
      1 C01         11.9590    21.9750     3.5730 c3         1 8C5       0.121900
      2 O02         10.6220    21.5190     3.8380 os         1 8C5      -0.225100
      3 N03          9.9220    22.4250     4.7110 ns         1 8C5      -0.386400
      4 C04          9.0200    23.3180     4.1680 c          1 8C5       0.630300
      5 O05          8.9240    23.4640     2.9560 o          1 8C5      -0.621100
      6 C06          8.1990    24.0930     5.1300 cc         1 8C5      -0.358400
      7 C07          7.3040    24.9960     4.5780 cd         1 8C5       0.127000
      8 N08          6.3700    25.6030     5.4470 na         1 8C5      -0.605100
      9 C09          6.7670    25.8070     6.7780 ca         1 8C5       0.409900
     10 N10          6.2480    26.8010     7.5260 nb         1 8C5      -0.300000
     11 C11          6.6100    26.8950     8.8110 ca         1 8C5       0.430900
     12 N12          7.4300    26.0700     9.4690 nb         1 8C5      -0.257000
     13 C13          7.9620    25.0750     8.7410 ca         1 8C5       0.225900
     14 C14          7.6590    24.9210     7.3780 ca         1 8C5      -0.355600
     15 C15          8.3050    23.8840     6.5770 c          1 8C5       0.627900
     16 O16          8.9290    22.9800     7.1170 o          1 8C5      -0.603100
     17 N17          6.0400    27.9000     9.5770 nu         1 8C5      -0.916900
     18 C18          5.2050    28.9870     9.2900 ca         1 8C5       0.300000
     19 C19          5.2330    29.6470     8.0460 ca         1 8C5      -0.137500
     20 C20          4.3770    30.7330     7.7930 ca         1 8C5      -0.083000
     21 C21          3.4860    31.1800     8.7860 ca         1 8C5      -0.096300
     22 C22          3.4690    30.5350    10.0370 ca         1 8C5      -0.083000
     23 C23          4.3280    29.4490    10.2860 ca         1 8C5      -0.137500
     24 C24          2.5520    32.3500     8.5050 c3         1 8C5      -0.030100
     25 C25          1.3450    31.9320     7.6370 c3         1 8C5       0.169800
     26 N26          0.3550    33.0090     7.4050 n3         1 8C5      -0.719600
     27 C27          0.8310    34.1730     6.6250 c5         1 8C5       0.155300
     28 C28         -0.4710    35.0030     6.4540 c5         1 8C5      -0.078900
     29 C29         -1.6110    33.9390     6.5390 c5         1 8C5      -0.078900
     30 C30         -0.8510    32.5940     6.6610 c5         1 8C5       0.155300
     31 C31          5.1290    26.2620     4.9370 c6         1 8C5       0.220500
     32 C32          5.4630    27.5940     4.2120 c6         1 8C5      -0.089900
     33 C33          4.1730    28.2940     3.7130 c6         1 8C5      -0.072400
     34 C34          3.3420    27.3540     2.8030 c6         1 8C5      -0.080400
     35 C35          3.0180    26.0170     3.5160 c6         1 8C5      -0.072400
     36 C36          4.3110    25.3200     4.0120 c6         1 8C5      -0.089900
     37 H24          2.1820    32.7790     9.4440 hc         1 8C5       0.055200
     38 H24A         3.1080    33.1490     7.9990 hc         1 8C5       0.055200
     39 H30         -0.5920    32.1920     5.6710 h1         1 8C5       0.035200
     40 H30A        -1.4370    31.8350     7.1970 h1         1 8C5       0.035200
     41 H35          2.3480    26.2040     4.3670 hc         1 8C5       0.046700
     42 H36          4.9080    25.0130     3.1440 hc         1 8C5       0.054450
     43 H01         12.4760    21.2720     2.9080 h1         1 8C5       0.042700
     44 H01A        11.9460    22.9590     3.0880 h1         1 8C5       0.042700
     45 H01B        12.5350    22.0520     4.5040 h1         1 8C5       0.042700
     46 HN03         9.9360    22.2270     5.7110 hn         1 8C5       0.379500
     47 H07          7.1840    25.1540     3.5060 h4         1 8C5       0.236000
     48 H13          8.6550    24.4120     9.2590 h4         1 8C5       0.051100
     49 HN17         6.1860    27.7470    10.5750 hn         1 8C5       0.519000
     50 H19          5.9280    29.3380     7.2730 ha         1 8C5       0.127000
     51 H20          4.4090    31.2290     6.8250 ha         1 8C5       0.115500
     52 H22          2.7880    30.8700    10.8170 ha         1 8C5       0.115500
     53 H23          4.2990    28.9580    11.2540 ha         1 8C5       0.127000
     54 H25          1.7180    31.5540     6.6750 h1         1 8C5       0.032200
     55 H25A         0.8480    31.0910     8.1400 h1         1 8C5       0.032200
     56 H27          1.6120    34.7450     7.1440 h1         1 8C5       0.035200
     57 H27A         1.2300    33.8610     5.6480 h1         1 8C5       0.035200
     58 H28         -0.5720    35.7450     7.2530 hc         1 8C5       0.047450
     59 H28A        -0.4770    35.5480     5.5040 hc         1 8C5       0.047450
     60 H29         -2.2400    34.1130     7.4200 hc         1 8C5       0.047450
     61 H29A        -2.2700    33.9570     5.6630 hc         1 8C5       0.047450
     62 H31          4.4730    26.5020     5.7880 h1         1 8C5       0.100700
     63 H32          6.0060    28.2640     4.8910 hc         1 8C5       0.054450
     64 H32A         6.1300    27.4040     3.3600 hc         1 8C5       0.054450
     65 H33          3.5670    28.6080     4.5740 hc         1 8C5       0.046700
     66 H33A         4.4340    29.2100     3.1650 hc         1 8C5       0.046700
     67 H34          2.4100    27.8530     2.5050 hc         1 8C5       0.046200
     68 H34A         3.8970    27.1530     1.8760 hc         1 8C5       0.046200
     69 H35A         2.4740    25.3520     2.8320 hc         1 8C5       0.046700
     70 H36A         4.0510    24.4010     4.5550 hc         1 8C5       0.054450
@<TRIPOS>BOND
     1     1     2 1   
     2     1    43 1   
     3     1    44 1   
     4     1    45 1   
     5     2     3 1   
     6     3     4 1   
     7     3    46 1   
     8     4     5 2   
     9     4     6 1   
    10     6     7 2   
    11     6    15 1   
    12     7     8 1   
    13     7    47 1   
    14     8     9 1   
    15     8    31 1   
    16     9    10 ar  
    17     9    14 ar  
    18    10    11 ar  
    19    11    12 ar  
    20    11    17 1   
    21    12    13 ar  
    22    13    14 ar  
    23    13    48 1   
    24    14    15 1   
    25    15    16 2   
    26    17    18 1   
    27    17    49 1   
    28    18    19 ar  
    29    18    23 ar  
    30    19    20 ar  
    31    19    50 1   
    32    20    21 ar  
    33    20    51 1   
    34    21    22 ar  
    35    21    24 1   
    36    22    23 ar  
    37    22    52 1   
    38    23    53 1   
    39    24    25 1   
    40    24    37 1   
    41    24    38 1   
    42    25    26 1   
    43    25    54 1   
    44    25    55 1   
    45    26    27 1   
    46    26    30 1   
    47    27    28 1   
    48    27    56 1   
    49    27    57 1   
    50    28    29 1   
    51    28    58 1   
    52    28    59 1   
    53    29    30 1   
    54    29    60 1   
    55    29    61 1   
    56    30    39 1   
    57    30    40 1   
    58    31    32 1   
    59    31    36 1   
    60    31    62 1   
    61    32    33 1   
    62    32    63 1   
    63    32    64 1   
    64    33    34 1   
    65    33    65 1   
    66    33    66 1   
    67    34    35 1   
    68    34    67 1   
    69    34    68 1   
    70    35    36 1   
    71    35    41 1   
    72    35    69 1   
    73    36    42 1   
    74    36    70 1   
@<TRIPOS>SUBSTRUCTURE
     1 8C5         1 TEMP              0 ****  ****    0 ROOT
