@<TRIPOS>MOLECULE
8C5
   70    74     1     0     0
SMALL
abcg2


@<TRIPOS>ATOM
      1 C01         11.1890    21.2610     3.4930 c3         1 8C5       0.121900
      2 O02          9.9350    20.9790     4.1390 os         1 8C5      -0.225100
      3 N03          9.5040    22.0730     4.8640 ns         1 8C5      -0.386400
      4 C04          8.5750    22.9000     4.3420 c          1 8C5       0.630300
      5 O05          8.1910    22.8420     3.1730 o          1 8C5      -0.621100
      6 C06          8.0630    23.9210     5.3050 cc         1 8C5      -0.358400
      7 C07          7.1940    24.8420     4.7880 cd         1 8C5       0.127000
      8 N08          6.6090    25.8370     5.4860 na         1 8C5      -0.605100
      9 C09          6.8980    25.9720     6.8280 ca         1 8C5       0.409900
     10 N10          6.3290    26.9710     7.4970 nb         1 8C5      -0.300000
     11 C11          6.6120    27.0820     8.7900 ca         1 8C5       0.430900
     12 N12          7.4350    26.2510     9.4930 nb         1 8C5      -0.257000
     13 C13          7.9900    25.2740     8.8130 ca         1 8C5       0.225900
     14 C14          7.7740    25.0590     7.4400 ca         1 8C5      -0.355600
     15 C15          8.4150    23.9750     6.7120 c          1 8C5       0.627900
     16 O16          9.1930    23.1780     7.2750 o          1 8C5      -0.603100
     17 N17          6.0610    28.0730     9.5290 nu         1 8C5      -0.916900
     18 C18          5.1740    29.1020     9.1670 ca         1 8C5       0.300000
     19 C19          5.0060    29.5700     7.8610 ca         1 8C5      -0.137500
     20 C20          4.1270    30.6160     7.6110 ca         1 8C5      -0.083000
     21 C21          3.3990    31.2300     8.6300 ca         1 8C5      -0.096300
     22 C22          3.5860    30.7590     9.9310 ca         1 8C5      -0.083000
     23 C23          4.4570    29.7150    10.2010 ca         1 8C5      -0.137500
     24 C24          2.4170    32.3300     8.3320 c3         1 8C5      -0.030100
     25 C25          1.0530    31.7720     7.9100 c3         1 8C5       0.169800
     26 N26          0.0570    32.8070     7.6900 n3         1 8C5      -0.719600
     27 C27          0.3160    33.6680     6.5340 c5         1 8C5       0.155300
     28 C28         -1.0110    34.4080     6.3170 c5         1 8C5      -0.078900
     29 C29         -2.0820    33.4670     6.9300 c5         1 8C5      -0.078900
     30 C30         -1.2800    32.2640     7.4380 c5         1 8C5       0.155300
     31 C31          5.6890    26.7830     4.8010 c6         1 8C5       0.220500
     32 C32          6.4450    27.6550     3.8010 c6         1 8C5      -0.089900
     33 C33          5.4890    28.6640     3.1590 c6         1 8C5      -0.072400
     34 C34          4.2890    27.9660     2.5170 c6         1 8C5      -0.080400
     35 C35          3.5580    27.0780     3.5250 c6         1 8C5      -0.072400
     36 C36          4.5050    26.0590     4.1640 c6         1 8C5      -0.089900
     37 H24          2.2780    32.9580     9.2160 hc         1 8C5       0.055200
     38 H24A         2.8120    32.9670     7.5380 hc         1 8C5       0.055200
     39 H30         -1.2390    31.4790     6.6620 h1         1 8C5       0.035200
     40 H30A        -1.6900    31.8140     8.3440 h1         1 8C5       0.035200
     41 H35          3.1230    27.7050     4.3110 hc         1 8C5       0.046700
     42 H36          4.8560    25.3630     3.3960 hc         1 8C5       0.054450
     43 H01         11.4510    20.3470     2.9630 h1         1 8C5       0.042700
     44 H01A        11.0780    22.0850     2.7880 h1         1 8C5       0.042700
     45 H01B        11.9540    21.4980     4.2340 h1         1 8C5       0.042700
     46 HN03         9.6950    22.0830     5.8670 hn         1 8C5       0.379500
     47 H07          6.9440    24.7880     3.7390 h4         1 8C5       0.236000
     48 H13          8.6480    24.6030     9.3520 h4         1 8C5       0.051100
     49 HN17         6.2790    28.0050    10.5130 hn         1 8C5       0.519000
     50 H19          5.5610    29.1270     7.0520 ha         1 8C5       0.127000
     51 H20          4.0130    30.9670     6.5910 ha         1 8C5       0.115500
     52 H22          3.0410    31.2160    10.7480 ha         1 8C5       0.115500
     53 H23          4.5890    29.3670    11.2180 ha         1 8C5       0.127000
     54 H25          1.1830    31.1530     7.0040 h1         1 8C5       0.032200
     55 H25A         0.6860    31.1100     8.6980 h1         1 8C5       0.032200
     56 H27          1.1530    34.3410     6.7210 h1         1 8C5       0.035200
     57 H27A         0.5670    33.0580     5.6480 h1         1 8C5       0.035200
     58 H28         -1.0030    35.3670     6.8350 hc         1 8C5       0.047450
     59 H28A        -1.1850    34.6060     5.2600 hc         1 8C5       0.047450
     60 H29         -2.5980    33.9590     7.7550 hc         1 8C5       0.047450
     61 H29A        -2.8360    33.1650     6.2030 hc         1 8C5       0.047450
     62 H31          5.3090    27.4190     5.5950 h1         1 8C5       0.100700
     63 H32          7.2640    28.1680     4.3110 hc         1 8C5       0.054450
     64 H32A         6.8860    27.0240     3.0230 hc         1 8C5       0.054450
     65 H33          5.1370    29.3600     3.9280 hc         1 8C5       0.046700
     66 H33A         6.0280    29.2580     2.4170 hc         1 8C5       0.046700
     67 H34          3.6020    28.7070     2.1010 hc         1 8C5       0.046200
     68 H34A         4.6380    27.3500     1.6810 hc         1 8C5       0.046200
     69 H35A         2.7300    26.5540     3.0430 hc         1 8C5       0.046700
     70 H36A         3.9870    25.4710     4.9250 hc         1 8C5       0.054450
@<TRIPOS>BOND
     1     1     2 1   
     2     1    43 1   
     3     1    44 1   
     4     1    45 1   
     5     2     3 1   
     6     3     4 1   
     7     3    46 1   
     8     4     5 2   
     9     4     6 1   
    10     6     7 2   
    11     6    15 1   
    12     7     8 1   
    13     7    47 1   
    14     8     9 1   
    15     8    31 1   
    16     9    10 ar  
    17     9    14 ar  
    18    10    11 ar  
    19    11    12 ar  
    20    11    17 1   
    21    12    13 ar  
    22    13    14 ar  
    23    13    48 1   
    24    14    15 1   
    25    15    16 2   
    26    17    18 1   
    27    17    49 1   
    28    18    19 ar  
    29    18    23 ar  
    30    19    20 ar  
    31    19    50 1   
    32    20    21 ar  
    33    20    51 1   
    34    21    22 ar  
    35    21    24 1   
    36    22    23 ar  
    37    22    52 1   
    38    23    53 1   
    39    24    25 1   
    40    24    37 1   
    41    24    38 1   
    42    25    26 1   
    43    25    54 1   
    44    25    55 1   
    45    26    27 1   
    46    26    30 1   
    47    27    28 1   
    48    27    56 1   
    49    27    57 1   
    50    28    29 1   
    51    28    58 1   
    52    28    59 1   
    53    29    30 1   
    54    29    60 1   
    55    29    61 1   
    56    30    39 1   
    57    30    40 1   
    58    31    32 1   
    59    31    36 1   
    60    31    62 1   
    61    32    33 1   
    62    32    63 1   
    63    32    64 1   
    64    33    34 1   
    65    33    65 1   
    66    33    66 1   
    67    34    35 1   
    68    34    67 1   
    69    34    68 1   
    70    35    36 1   
    71    35    41 1   
    72    35    69 1   
    73    36    42 1   
    74    36    70 1   
@<TRIPOS>SUBSTRUCTURE
     1 8C5         1 TEMP              0 ****  ****    0 ROOT
