@<TRIPOS>MOLECULE
8C7
   36    37     1     0     0
SMALL
bcc


@<TRIPOS>ATOM
      1 C4          15.0020   -15.1430    -8.3530 ca         1 8C7      -0.208000
      2 C14         14.9690   -15.1220   -11.1180 ca         1 8C7      -0.048500
      3 C5          13.7840   -15.2660    -9.0290 ca         1 8C7       0.173100
      4 C6          11.4110   -15.4320    -8.8830 c3         1 8C7       0.143400
      5 C11          9.2730   -14.2480    -5.8660 c6         1 8C7      -0.072900
      6 C7          10.3470   -15.4610    -7.8030 c6         1 8C7      -0.064700
      7 C8           8.9710   -15.6070    -8.4540 c6         1 8C7      -0.070400
      8 C9           7.8570   -15.6370    -7.4120 c6         1 8C7      -0.072900
      9 C10          7.9010   -14.4070    -6.5130 c6         1 8C7      -0.075400
     10 C12         10.3850   -14.2210    -6.9100 c6         1 8C7      -0.070400
     11 C13         13.7770   -15.2630   -10.4230 ca         1 8C7      -0.208000
     12 N1          17.4580   -14.4480   -12.4360 nt         1 8C7      -0.673000
     13 C3          16.1780   -15.0160    -9.0580 ca         1 8C7      -0.048500
     14 O1          18.5460   -15.0860   -10.5720 o          1 8C7      -0.609100
     15 C2          16.1850   -14.9870   -10.4550 ca         1 8C7      -0.196600
     16 O2          12.6900   -15.3880    -8.2680 os         1 8C7      -0.320900
     17 H1          15.0100   -15.1490    -7.2700 ha         1 8C7       0.143000
     18 H2          14.9220   -15.1440   -12.1990 ha         1 8C7       0.140000
     19 H3          11.2690   -14.5530    -9.5240 h1         1 8C7       0.035700
     20 H4          11.3290   -16.3230    -9.5170 h1         1 8C7       0.035700
     21 H5           9.4470   -15.0810    -5.1760 hc         1 8C7       0.040700
     22 H6           9.3060   -13.3370    -5.2640 hc         1 8C7       0.040700
     23 H7          10.5180   -16.3460    -7.1760 hc         1 8C7       0.062700
     24 H8           8.8050   -14.7680    -9.1390 hc         1 8C7       0.042200
     25 H9           8.9390   -16.5160    -9.0620 hc         1 8C7       0.042200
     26 H10          6.8860   -15.7100    -7.9090 hc         1 8C7       0.040700
     27 H11          7.9610   -16.5380    -6.7990 hc         1 8C7       0.040700
     28 H12          7.6760   -13.5140    -7.1070 hc         1 8C7       0.039200
     29 H13          7.1250   -14.4710    -5.7460 hc         1 8C7       0.039200
     30 H14         11.3540   -14.1330    -6.4150 hc         1 8C7       0.042200
     31 H15         10.2730   -13.3290    -7.5380 hc         1 8C7       0.042200
     32 H16         12.8590   -15.3750   -10.9840 ha         1 8C7       0.143000
     33 H17         18.3240   -14.3150   -12.9330 hn         1 8C7       0.311500
     34 H18         16.6270   -14.0960   -12.8770 hn         1 8C7       0.311500
     35 H19         17.1100   -14.9230    -8.5160 ha         1 8C7       0.140000
     36 C1          17.4940   -14.8460   -11.1520 c          1 8C7       0.689700
@<TRIPOS>BOND
     1     1     3 ar  
     2     1    13 ar  
     3     1    17 1   
     4     2    11 ar  
     5     2    15 ar  
     6     2    18 1   
     7     3    11 ar  
     8     3    16 1   
     9     4     6 1   
    10     4    16 1   
    11     4    19 1   
    12     4    20 1   
    13     5     9 1   
    14     5    10 1   
    15     5    21 1   
    16     5    22 1   
    17     6     7 1   
    18     6    10 1   
    19     6    23 1   
    20     7     8 1   
    21     7    24 1   
    22     7    25 1   
    23     8     9 1   
    24     8    26 1   
    25     8    27 1   
    26     9    28 1   
    27     9    29 1   
    28    10    30 1   
    29    10    31 1   
    30    11    32 1   
    31    12    33 1   
    32    12    34 1   
    33    12    36 1   
    34    13    15 ar  
    35    13    35 1   
    36    14    36 2   
    37    15    36 1   
@<TRIPOS>SUBSTRUCTURE
     1 8C7         1 TEMP              0 ****  ****    0 ROOT
