@<TRIPOS>MOLECULE
8C7
   36    37     1     0     0
SMALL
No Charge or Current Charge


@<TRIPOS>ATOM
      1 C4          15.0600   -15.1230    -8.3600 ca         1 8C7      -0.190000
      2 C14         15.0620   -14.9670   -11.1610 ca         1 8C7      -0.030500
      3 C5          13.8430   -15.1530    -9.0530 ca         1 8C7       0.173100
      4 C6          11.3830   -15.2900    -8.9320 c3         1 8C7       0.166600
      5 C11          9.1960   -14.3020    -5.7840 c6         1 8C7      -0.072900
      6 C7          10.2930   -15.4050    -7.8280 c6         1 8C7      -0.064700
      7 C8           8.8840   -15.6000    -8.4560 c6         1 8C7      -0.070400
      8 C9           7.7880   -15.7260    -7.3680 c6         1 8C7      -0.072900
      9 C10          7.7980   -14.5040    -6.4190 c6         1 8C7      -0.075400
     10 C12         10.2930   -14.1770    -6.8710 c6         1 8C7      -0.070400
     11 C13         13.8470   -15.0740   -10.4610 ca         1 8C7      -0.190000
     12 N1          17.6120   -14.7480   -12.5330 nt         1 8C7      -0.606000
     13 C3          16.2760   -15.0160    -9.0540 ca         1 8C7      -0.030500
     14 O1          18.6880   -14.7960   -10.5980 o          1 8C7      -0.609100
     15 C2          16.2940   -14.9370   -10.4650 ca         1 8C7      -0.196600
     16 O2          12.6820   -15.2580    -8.3160 os         1 8C7      -0.344100
     17 H1          15.0610   -15.1830    -7.2750 ha         1 8C7       0.125000
     18 H2          15.0270   -14.9090   -12.2460 ha         1 8C7       0.122000
     19 H3          11.2070   -14.3780    -9.5160 h1         1 8C7       0.035700
     20 H4          11.3010   -16.1560    -9.6030 h1         1 8C7       0.035700
     21 H5           9.4270   -15.1480    -5.1220 hc         1 8C7       0.040700
     22 H6           9.1920   -13.4040    -5.1530 hc         1 8C7       0.040700
     23 H7          10.5390   -16.3050    -7.2470 hc         1 8C7       0.062700
     24 H8           8.6490   -14.7530    -9.1160 hc         1 8C7       0.042200
     25 H9           8.8760   -16.4990    -9.0880 hc         1 8C7       0.042200
     26 H10          6.8020   -15.8210    -7.8420 hc         1 8C7       0.040700
     27 H11          7.9460   -16.6460    -6.7880 hc         1 8C7       0.040700
     28 H12          7.5100   -13.6010    -6.9740 hc         1 8C7       0.039200
     29 H13          7.0460   -14.6380    -5.6290 hc         1 8C7       0.039200
     30 H14         11.2730   -14.0740    -6.3840 hc         1 8C7       0.042200
     31 H15         10.1350   -13.2550    -7.4470 hc         1 8C7       0.042200
     32 H16         12.9220   -15.0940   -11.0290 ha         1 8C7       0.125000
     33 H17         18.4900   -14.6710   -13.0240 hn         1 8C7       0.311500
     34 H18         16.7420   -14.7680   -13.0400 hn         1 8C7       0.311500
     35 H19         17.2070   -14.9960    -8.4900 ha         1 8C7       0.122000
     36 C1          17.6190   -14.8230   -11.1850 c          1 8C7       0.622700
@<TRIPOS>BOND
     1     1     3 ar  
     2     1    13 ar  
     3     1    17 1   
     4     2    11 ar  
     5     2    15 ar  
     6     2    18 1   
     7     3    11 ar  
     8     3    16 1   
     9     4     6 1   
    10     4    16 1   
    11     4    19 1   
    12     4    20 1   
    13     5     9 1   
    14     5    10 1   
    15     5    21 1   
    16     5    22 1   
    17     6     7 1   
    18     6    10 1   
    19     6    23 1   
    20     7     8 1   
    21     7    24 1   
    22     7    25 1   
    23     8     9 1   
    24     8    26 1   
    25     8    27 1   
    26     9    28 1   
    27     9    29 1   
    28    10    30 1   
    29    10    31 1   
    30    11    32 1   
    31    12    33 1   
    32    12    34 1   
    33    12    36 1   
    34    13    15 ar  
    35    13    35 1   
    36    14    36 2   
    37    15    36 1   
@<TRIPOS>SUBSTRUCTURE
     1 8C7         1 TEMP              0 ****  ****    0 ROOT
