@<TRIPOS>MOLECULE
8C9
   89    92     1     0     0
SMALL
abcg2


@<TRIPOS>ATOM
      1 O3           6.9340     0.5800     0.0870 o          1 8C9      -0.531100
      2 C22          5.8850     1.1650    -0.0980 c          1 8C9       0.587700
      3 C23          5.8740     2.6260    -0.3610 ca         1 8C9      -0.218600
      4 C28          4.6960     3.3390    -0.5870 ca         1 8C9      -0.023000
      5 C27          4.7170     4.6990    -0.8380 ca         1 8C9      -0.194500
      6 C26          5.9330     5.3810    -0.8680 ca         1 8C9       0.168100
      7 O4           6.0190     6.6960    -1.1080 oh         1 8C9      -0.527100
      8 C25          7.1210     4.6830    -0.6410 ca         1 8C9      -0.194500
      9 C24          7.0840     3.3270    -0.3920 ca         1 8C9      -0.023000
     10 C21          4.5610     0.4390    -0.0750 c3         1 8C9      -0.176400
     11 C20          4.6700    -1.0560     0.1830 c3         1 8C9      -0.065400
     12 C19          3.3210    -1.7440     0.4360 c3         1 8C9      -0.054700
     13 C31          3.5140    -3.2510     0.6420 c3         1 8C9      -0.072400
     14 C32          4.4090    -3.6230     1.8200 c3         1 8C9      -0.079400
     15 C33          4.4070    -5.1200     2.1080 c3         1 8C9      -0.075400
     16 C34          5.3140    -5.4990     3.2700 c3         1 8C9      -0.089100
     17 C18          2.2620    -1.4230    -0.6470 c3         1 8C9      -0.045700
     18 C30          2.6990    -1.9310    -2.0200 c3         1 8C9      -0.087100
     19 C17          0.8590    -1.8990    -0.2420 c5         1 8C9      -0.054700
     20 C13         -0.3340    -1.5330    -1.1630 c5         1 8C9      -0.037000
     21 C29         -0.2790    -0.0650    -1.5920 c3         1 8C9      -0.078100
     22 C12         -0.5450    -2.4440    -2.3750 c6         1 8C9      -0.063400
     23 C11         -1.9010    -2.2020    -3.0370 c6         1 8C9      -0.071400
     24 C10         -3.0720    -2.2970    -2.0530 c6         1 8C9      -0.042200
     25 C16          0.4350    -1.3560     1.1480 c5         1 8C9      -0.077400
     26 C15         -1.0840    -1.1080     1.1000 c5         1 8C9      -0.071400
     27 C14         -1.5140    -1.7840    -0.1900 c5         1 8C9      -0.035500
     28 C9          -2.8440    -1.4840    -0.8070 c2         1 8C9      -0.079400
     29 C8          -3.7190    -0.6160    -0.2740 ce         1 8C9      -0.190000
     30 C7          -5.0210    -0.2700    -0.8150 ce         1 8C9      -0.162000
     31 C5          -5.9420     0.5250    -0.2480 c2         1 8C9      -0.106400
     32 C6          -7.2500     0.8030    -0.9290 c6         1 8C9      -0.032200
     33 C1          -8.4260     0.4020    -0.0410 c6         1 8C9       0.212000
     34 O1          -8.4100    -1.0070     0.0730 oh         1 8C9      -0.654000
     35 C4          -5.8100     1.1810     1.0970 c6         1 8C9      -0.032200
     36 C3          -6.9780     0.7780     2.0070 c6         1 8C9       0.212000
     37 O2          -6.8270     1.4570     3.2280 oh         1 8C9      -0.654000
     38 C2          -8.2800     1.0710     1.3040 c2         1 8C9      -0.199400
     39 C35         -9.2130     1.8880     1.7800 c2         1 8C9      -0.298000
     40 H1           3.7360     2.8400    -0.5710 ha         1 8C9       0.125000
     41 H2           3.7880     5.2300    -1.0140 ha         1 8C9       0.125000
     42 H3           5.1450     7.0730    -1.2640 ho         1 8C9       0.469000
     43 H4           8.0660     5.2110    -0.6650 ha         1 8C9       0.125000
     44 H5           8.0120     2.8000    -0.2180 ha         1 8C9       0.125000
     45 H6           3.9270     0.9090     0.6870 hc         1 8C9       0.060700
     46 H7           4.0590     0.6400    -1.0270 hc         1 8C9       0.060700
     47 H8           5.1930    -1.5360    -0.6500 hc         1 8C9       0.053700
     48 H9           5.3040    -1.2100     1.0570 hc         1 8C9       0.053700
     49 H10          2.9470    -1.3380     1.3840 hc         1 8C9       0.042700
     50 H11          2.5370    -3.7170     0.8030 hc         1 8C9       0.039700
     51 H12          3.9170    -3.7040    -0.2710 hc         1 8C9       0.039700
     52 H13          5.4390    -3.3020     1.6370 hc         1 8C9       0.039700
     53 H14          4.0770    -3.0830     2.7140 hc         1 8C9       0.039700
     54 H15          3.3840    -5.4450     2.3210 hc         1 8C9       0.035700
     55 H16          4.7150    -5.6620     1.2090 hc         1 8C9       0.035700
     56 H17          5.2990    -6.5740     3.4580 hc         1 8C9       0.031700
     57 H18          6.3490    -5.2130     3.0730 hc         1 8C9       0.031700
     58 H19          5.0050    -5.0000     4.1900 hc         1 8C9       0.031700
     59 H20          2.2010    -0.3300    -0.7020 hc         1 8C9       0.041700
     60 H21          3.7430    -1.6860    -2.2230 hc         1 8C9       0.033700
     61 H22          2.5950    -3.0140    -2.1060 hc         1 8C9       0.033700
     62 H23          2.1140    -1.4810    -2.8200 hc         1 8C9       0.033700
     63 H24          0.8620    -2.9960    -0.1920 hc         1 8C9       0.047700
     64 H25         -0.0310     0.6010    -0.7640 hc         1 8C9       0.033033
     65 H26          0.4730     0.0920    -2.3680 hc         1 8C9       0.033033
     66 H27         -1.2330     0.2750    -1.9960 hc         1 8C9       0.033033
     67 H28          0.2410    -2.3130    -3.1190 hc         1 8C9       0.040700
     68 H29         -0.4840    -3.4860    -2.0400 hc         1 8C9       0.040700
     69 H30         -1.9090    -1.2200    -3.5180 hc         1 8C9       0.039700
     70 H31         -2.0500    -2.9300    -3.8380 hc         1 8C9       0.039700
     71 H32         -4.0000    -2.0300    -2.5580 hc         1 8C9       0.047200
     72 H33         -3.1810    -3.3460    -1.7470 hc         1 8C9       0.047200
     73 H34          0.6970    -2.0650     1.9350 hc         1 8C9       0.041200
     74 H35          0.9660    -0.4290     1.3820 hc         1 8C9       0.041200
     75 H36         -1.6050    -1.5080     1.9720 hc         1 8C9       0.045200
     76 H37         -1.2950    -0.0370     1.0710 hc         1 8C9       0.045200
     77 H38         -1.5020    -2.8710    -0.0050 hc         1 8C9       0.053700
     78 H39         -3.4360    -0.1280     0.6520 ha         1 8C9       0.172000
     79 H40         -5.2770    -0.6890    -1.7830 ha         1 8C9       0.170000
     80 H41         -7.3460     1.8760    -1.1320 hc         1 8C9       0.057950
     81 H42         -7.3160     0.2890    -1.8910 hc         1 8C9       0.057950
     82 H43         -9.3580     0.7470    -0.5090 h1         1 8C9       0.042700
     83 H44         -9.1520    -1.2700     0.6270 ho         1 8C9       0.441500
     84 H45         -4.8700     0.9260     1.5860 hc         1 8C9       0.057950
     85 H46         -5.8320     2.2710     0.9750 hc         1 8C9       0.057950
     86 H47         -6.9120    -0.3080     2.1610 h1         1 8C9       0.042700
     87 H48         -7.4630     1.0980     3.8550 ho         1 8C9       0.441500
     88 H49        -10.1260     2.0730     1.2260 ha         1 8C9       0.167500
     89 H50         -9.1110     2.4070     2.7240 ha         1 8C9       0.167500
@<TRIPOS>BOND
     1     1     2 2   
     2     2     3 1   
     3     2    10 1   
     4     3     4 ar  
     5     3     9 ar  
     6     4     5 ar  
     7     4    40 1   
     8     5     6 ar  
     9     5    41 1   
    10     6     7 1   
    11     6     8 ar  
    12     7    42 1   
    13     8     9 ar  
    14     8    43 1   
    15     9    44 1   
    16    10    11 1   
    17    10    45 1   
    18    10    46 1   
    19    11    12 1   
    20    11    47 1   
    21    11    48 1   
    22    12    13 1   
    23    12    17 1   
    24    12    49 1   
    25    13    14 1   
    26    13    50 1   
    27    13    51 1   
    28    14    15 1   
    29    14    52 1   
    30    14    53 1   
    31    15    16 1   
    32    15    54 1   
    33    15    55 1   
    34    16    56 1   
    35    16    57 1   
    36    16    58 1   
    37    17    18 1   
    38    17    19 1   
    39    17    59 1   
    40    18    60 1   
    41    18    61 1   
    42    18    62 1   
    43    19    20 1   
    44    19    25 1   
    45    19    63 1   
    46    20    21 1   
    47    20    22 1   
    48    20    27 1   
    49    21    64 1   
    50    21    65 1   
    51    21    66 1   
    52    22    23 1   
    53    22    67 1   
    54    22    68 1   
    55    23    24 1   
    56    23    69 1   
    57    23    70 1   
    58    24    28 1   
    59    24    71 1   
    60    24    72 1   
    61    25    26 1   
    62    25    73 1   
    63    25    74 1   
    64    26    27 1   
    65    26    75 1   
    66    26    76 1   
    67    27    28 1   
    68    27    77 1   
    69    28    29 2   
    70    29    30 1   
    71    29    78 1   
    72    30    31 2   
    73    30    79 1   
    74    31    32 1   
    75    31    35 1   
    76    32    33 1   
    77    32    80 1   
    78    32    81 1   
    79    33    34 1   
    80    33    38 1   
    81    33    82 1   
    82    34    83 1   
    83    35    36 1   
    84    35    84 1   
    85    35    85 1   
    86    36    37 1   
    87    36    38 1   
    88    36    86 1   
    89    37    87 1   
    90    38    39 2   
    91    39    88 1   
    92    39    89 1   
@<TRIPOS>SUBSTRUCTURE
     1 8C9         1 TEMP              0 ****  ****    0 ROOT
