@<TRIPOS>MOLECULE
8C9
   89    92     1     0     0
SMALL
No Charge or Current Charge


@<TRIPOS>ATOM
      1 O3           7.1740     0.4700    -0.2430 o          1 8C9      -0.531100
      2 C22          6.1420     1.1300    -0.2870 c          1 8C9       0.587700
      3 C23          6.2050     2.6420    -0.3740 ca         1 8C9      -0.218600
      4 C28          5.0590     3.4220    -0.6640 ca         1 8C9      -0.023000
      5 C27          5.1510     4.8230    -0.7400 ca         1 8C9      -0.194500
      6 C26          6.3810     5.4610    -0.5310 ca         1 8C9       0.168100
      7 O4           6.4750     6.8180    -0.6040 oh         1 8C9      -0.527100
      8 C25          7.5220     4.7020    -0.2480 ca         1 8C9      -0.194500
      9 C24          7.4390     3.3020    -0.1710 ca         1 8C9      -0.023000
     10 C21          4.7660     0.4340    -0.2680 c3         1 8C9      -0.176400
     11 C20          4.7780    -1.0770     0.0940 c3         1 8C9      -0.065400
     12 C19          3.3760    -1.7200     0.3580 c3         1 8C9      -0.054700
     13 C31          3.5010    -3.2390     0.7090 c3         1 8C9      -0.072400
     14 C32          4.3780    -3.5660     1.9430 c3         1 8C9      -0.079400
     15 C33          4.3240    -5.0580     2.3400 c3         1 8C9      -0.075400
     16 C34          5.2010    -5.3900     3.5620 c3         1 8C9      -0.089100
     17 C18          2.3120    -1.4470    -0.7810 c3         1 8C9      -0.045700
     18 C30          2.7430    -2.0780    -2.1330 c3         1 8C9      -0.087100
     19 C17          0.8320    -1.8050    -0.3730 c5         1 8C9      -0.054700
     20 C13         -0.3450    -1.4280    -1.3530 c5         1 8C9      -0.037000
     21 C29         -0.3090     0.0660    -1.8220 c3         1 8C9      -0.078100
     22 C12         -0.5560    -2.3390    -2.6330 c6         1 8C9      -0.063400
     23 C11         -1.9520    -2.1580    -3.3510 c6         1 8C9      -0.071400
     24 C10         -3.1540    -2.3040    -2.3740 c6         1 8C9      -0.042200
     25 C16          0.3680    -1.1160     0.9710 c5         1 8C9      -0.077400
     26 C15         -1.1840    -0.9340     0.8720 c5         1 8C9      -0.071400
     27 C14         -1.5440    -1.7840    -0.3760 c5         1 8C9      -0.035500
     28 C9          -2.9500    -1.5730    -1.0380 c2         1 8C9      -0.079400
     29 C8          -3.8910    -0.8580    -0.3600 ce         1 8C9      -0.190000
     30 C7          -5.2860    -0.6390    -0.7980 ce         1 8C9      -0.162000
     31 C5          -6.1910     0.2070    -0.2400 c2         1 8C9      -0.106400
     32 C6          -7.6150     0.3170    -0.7840 c6         1 8C9      -0.032200
     33 C1          -8.6930     0.1360     0.3180 c6         1 8C9       0.212000
     34 O1          -8.7700    -1.2280     0.7360 oh         1 8C9      -0.654000
     35 C4          -5.9440     1.1460     0.9440 c6         1 8C9      -0.032200
     36 C3          -6.9760     0.8990     2.0710 c6         1 8C9       0.212000
     37 O2          -6.7450     1.8130     3.1470 oh         1 8C9      -0.654000
     38 C2          -8.4150     1.0100     1.5400 c2         1 8C9      -0.199400
     39 C35         -9.3780     1.7920     2.0720 c2         1 8C9      -0.298000
     40 H1           4.0900     2.9590    -0.8400 ha         1 8C9       0.125000
     41 H2           4.2600     5.4040    -0.9640 ha         1 8C9       0.125000
     42 H3           5.5860     7.1780    -0.8090 ho         1 8C9       0.469000
     43 H4           8.4760     5.1980    -0.0880 ha         1 8C9       0.125000
     44 H5           8.3400     2.7320     0.0520 ha         1 8C9       0.125000
     45 H6           4.1070     1.0000     0.4000 hc         1 8C9       0.060700
     46 H7           4.3110     0.6130    -1.2480 hc         1 8C9       0.060700
     47 H8           5.3150    -1.6350    -0.6820 hc         1 8C9       0.053700
     48 H9           5.3780    -1.1760     1.0060 hc         1 8C9       0.053700
     49 H10          3.0080    -1.2250     1.2640 hc         1 8C9       0.042700
     50 H11          2.5060    -3.6490     0.9070 hc         1 8C9       0.039700
     51 H12          3.8960    -3.7830    -0.1570 hc         1 8C9       0.039700
     52 H13          5.4220    -3.3030     1.7380 hc         1 8C9       0.039700
     53 H14          4.0490    -2.9560     2.7930 hc         1 8C9       0.039700
     54 H15          3.2860    -5.3390     2.5600 hc         1 8C9       0.035700
     55 H16          4.6480    -5.6720     1.4900 hc         1 8C9       0.035700
     56 H17          5.1290    -6.4570     3.8060 hc         1 8C9       0.031700
     57 H18          6.2530    -5.1540     3.3610 hc         1 8C9       0.031700
     58 H19          4.8780    -4.8150     4.4390 hc         1 8C9       0.031700
     59 H20          2.3090    -0.3650    -0.9450 hc         1 8C9       0.041700
     60 H21          3.8200    -1.9870    -2.3050 hc         1 8C9       0.033700
     61 H22          2.4820    -3.1420    -2.1740 hc         1 8C9       0.033700
     62 H23          2.2620    -1.5620    -2.9680 hc         1 8C9       0.033700
     63 H24          0.8170    -2.8920    -0.2410 hc         1 8C9       0.047700
     64 H25         -0.0430     0.7590    -1.0160 hc         1 8C9       0.033033
     65 H26          0.4330     0.2100    -2.6160 hc         1 8C9       0.033033
     66 H27         -1.2770     0.3940    -2.2160 hc         1 8C9       0.033033
     67 H28          0.2270    -2.1550    -3.3760 hc         1 8C9       0.040700
     68 H29         -0.4460    -3.3930    -2.3430 hc         1 8C9       0.040700
     69 H30         -1.9920    -1.1690    -3.8260 hc         1 8C9       0.039700
     70 H31         -2.0480    -2.8870    -4.1670 hc         1 8C9       0.039700
     71 H32         -4.0560    -1.9620    -2.8950 hc         1 8C9       0.047200
     72 H33         -3.3120    -3.3700    -2.1620 hc         1 8C9       0.047200
     73 H34          0.6410    -1.7300     1.8370 hc         1 8C9       0.041200
     74 H35          0.8500    -0.1420     1.1180 hc         1 8C9       0.041200
     75 H36         -1.6960    -1.2870     1.7740 hc         1 8C9       0.045200
     76 H37         -1.4410     0.1240     0.7480 hc         1 8C9       0.045200
     77 H38         -1.4930    -2.8440    -0.0970 hc         1 8C9       0.053700
     78 H39         -3.6410    -0.4240     0.6020 ha         1 8C9       0.172000
     79 H40         -5.6190    -1.2380    -1.6440 ha         1 8C9       0.170000
     80 H41         -7.7400     1.3090    -1.2410 hc         1 8C9       0.057950
     81 H42         -7.7870    -0.4080    -1.5910 hc         1 8C9       0.057950
     82 H43         -9.6590     0.4310    -0.1190 h1         1 8C9       0.042700
     83 H44         -9.3980    -1.2390     1.4890 ho         1 8C9       0.441500
     84 H45         -4.9330     1.0530     1.3540 hc         1 8C9       0.057950
     85 H46         -6.0290     2.1840     0.5970 hc         1 8C9       0.057950
     86 H47         -6.8270    -0.1290     2.4360 h1         1 8C9       0.042700
     87 H48         -7.4100     1.5920     3.8330 ho         1 8C9       0.441500
     88 H49        -10.3820     1.8270     1.6470 ha         1 8C9       0.167500
     89 H50         -9.2120     2.4350     2.9370 ha         1 8C9       0.167500
@<TRIPOS>BOND
     1     1     2 2   
     2     2     3 1   
     3     2    10 1   
     4     3     4 ar  
     5     3     9 ar  
     6     4     5 ar  
     7     4    40 1   
     8     5     6 ar  
     9     5    41 1   
    10     6     7 1   
    11     6     8 ar  
    12     7    42 1   
    13     8     9 ar  
    14     8    43 1   
    15     9    44 1   
    16    10    11 1   
    17    10    45 1   
    18    10    46 1   
    19    11    12 1   
    20    11    47 1   
    21    11    48 1   
    22    12    13 1   
    23    12    17 1   
    24    12    49 1   
    25    13    14 1   
    26    13    50 1   
    27    13    51 1   
    28    14    15 1   
    29    14    52 1   
    30    14    53 1   
    31    15    16 1   
    32    15    54 1   
    33    15    55 1   
    34    16    56 1   
    35    16    57 1   
    36    16    58 1   
    37    17    18 1   
    38    17    19 1   
    39    17    59 1   
    40    18    60 1   
    41    18    61 1   
    42    18    62 1   
    43    19    20 1   
    44    19    25 1   
    45    19    63 1   
    46    20    21 1   
    47    20    22 1   
    48    20    27 1   
    49    21    64 1   
    50    21    65 1   
    51    21    66 1   
    52    22    23 1   
    53    22    67 1   
    54    22    68 1   
    55    23    24 1   
    56    23    69 1   
    57    23    70 1   
    58    24    28 1   
    59    24    71 1   
    60    24    72 1   
    61    25    26 1   
    62    25    73 1   
    63    25    74 1   
    64    26    27 1   
    65    26    75 1   
    66    26    76 1   
    67    27    28 1   
    68    27    77 1   
    69    28    29 2   
    70    29    30 1   
    71    29    78 1   
    72    30    31 2   
    73    30    79 1   
    74    31    32 1   
    75    31    35 1   
    76    32    33 1   
    77    32    80 1   
    78    32    81 1   
    79    33    34 1   
    80    33    38 1   
    81    33    82 1   
    82    34    83 1   
    83    35    36 1   
    84    35    84 1   
    85    35    85 1   
    86    36    37 1   
    87    36    38 1   
    88    36    86 1   
    89    37    87 1   
    90    38    39 2   
    91    39    88 1   
    92    39    89 1   
@<TRIPOS>SUBSTRUCTURE
     1 8C9         1 TEMP              0 ****  ****    0 ROOT
