@<TRIPOS>MOLECULE
8CA
   41    44     1     0     0
SMALL
No Charge or Current Charge


@<TRIPOS>ATOM
      1 O1          -1.7130     1.7800    -2.4820 o          1 8CA      -0.718500
      2 C7          -1.8200     1.7880    -1.2640 c          1 8CA       0.712600
      3 O2          -2.8930     1.8620    -0.6820 o          1 8CA      -0.718500
      4 C1          -0.5640     1.9320    -0.4470 ca         1 8CA      -0.129600
      5 C2          -0.3430     3.1540     0.2370 ca         1 8CA      -0.101000
      6 C3           0.8400     3.3750     0.9730 ca         1 8CA      -0.148000
      7 C4           1.8290     2.3800     1.0330 ca         1 8CA      -0.107000
      8 C5           1.5930     1.1760     0.3590 ca         1 8CA      -0.103800
      9 C8           2.4410     0.0260     0.2660 cc         1 8CA      -0.160400
     10 C13          3.8190    -0.2250     0.8380 c6         1 8CA       0.010800
     11 C12          4.1710    -1.7350     0.8080 c6         1 8CA      -0.072400
     12 C11          3.8050    -2.3790    -0.5530 c6         1 8CA      -0.067400
     13 C10          2.2840    -2.2820    -0.8280 c6         1 8CA      -0.010200
     14 C9           1.7550    -0.8960    -0.5140 cd         1 8CA      -0.075300
     15 N1           0.4950    -0.3660    -0.8780 na         1 8CA      -0.062700
     16 C6           0.4380     0.9300    -0.3480 ca         1 8CA      -0.004200
     17 C20         -0.6520    -1.1310    -1.4120 c3         1 8CA       0.103900
     18 C19         -1.7250    -1.4960    -0.3840 ca         1 8CA      -0.095300
     19 C18         -1.4050    -1.7030     0.9760 ca         1 8CA      -0.089500
     20 C17         -2.4080    -2.0550     1.8970 ca         1 8CA      -0.124500
     21 C16         -3.7360    -2.2070     1.4680 ca         1 8CA      -0.121000
     22 C15         -4.0610    -2.0100     0.1160 ca         1 8CA      -0.124500
     23 C14         -3.0600    -1.6580    -0.8060 ca         1 8CA      -0.089500
     24 H2          -1.0920     3.9420     0.1830 ha         1 8CA       0.116000
     25 H3           0.9920     4.3220     1.4860 ha         1 8CA       0.085000
     26 H4           2.7510     2.5410     1.5860 ha         1 8CA       0.087000
     27 H13          4.5660     0.3330     0.2570 hc         1 8CA       0.033200
     28 H13A         3.8890     0.1480     1.8680 hc         1 8CA       0.033200
     29 H12          5.2420    -1.8700     1.0130 hc         1 8CA       0.029200
     30 H12A         3.6320    -2.2540     1.6120 hc         1 8CA       0.029200
     31 H11          4.3580    -1.8720    -1.3560 hc         1 8CA       0.030200
     32 H11A         4.1210    -3.4310    -0.5710 hc         1 8CA       0.030200
     33 H10          2.0850    -2.5480    -1.8750 hc         1 8CA       0.043200
     34 H10A         1.7550    -3.0240    -0.2130 hc         1 8CA       0.043200
     35 H20         -1.0950    -0.5810    -2.2460 h1         1 8CA       0.088200
     36 H20A        -0.2690    -2.0640    -1.8410 h1         1 8CA       0.088200
     37 H18         -0.3810    -1.5970     1.3270 ha         1 8CA       0.130000
     38 H17         -2.1530    -2.2110     2.9430 ha         1 8CA       0.102000
     39 H16         -4.5110    -2.4800     2.1810 ha         1 8CA       0.095000
     40 H15         -5.0900    -2.1300    -0.2180 ha         1 8CA       0.102000
     41 H14         -3.3250    -1.5090    -1.8510 ha         1 8CA       0.130000
@<TRIPOS>BOND
     1     1     2 1   
     2     2     3 1   
     3     2     4 1   
     4     4     5 ar  
     5     4    16 ar  
     6     5     6 ar  
     7     5    24 1   
     8     6     7 ar  
     9     6    25 1   
    10     7     8 ar  
    11     7    26 1   
    12     8     9 1   
    13     8    16 ar  
    14     9    10 1   
    15     9    14 2   
    16    10    11 1   
    17    10    27 1   
    18    10    28 1   
    19    11    12 1   
    20    11    29 1   
    21    11    30 1   
    22    12    13 1   
    23    12    31 1   
    24    12    32 1   
    25    13    14 1   
    26    13    33 1   
    27    13    34 1   
    28    14    15 1   
    29    15    16 1   
    30    15    17 1   
    31    17    18 1   
    32    17    35 1   
    33    17    36 1   
    34    18    19 ar  
    35    18    23 ar  
    36    19    20 ar  
    37    19    37 1   
    38    20    21 ar  
    39    20    38 1   
    40    21    22 ar  
    41    21    39 1   
    42    22    23 ar  
    43    22    40 1   
    44    23    41 1   
@<TRIPOS>SUBSTRUCTURE
     1 8CA         1 TEMP              0 ****  ****    0 ROOT
