@<TRIPOS>MOLECULE
8CA
   41    44     1     0     0
SMALL
abcg2


@<TRIPOS>ATOM
      1 O1          -1.6220     2.2530    -2.2210 o          1 8CA      -0.718500
      2 C7          -1.6730     2.4810    -0.9950 c          1 8CA       0.712600
      3 O2          -2.6580     2.8760    -0.3460 o          1 8CA      -0.718500
      4 C1          -0.3750     2.3100    -0.2230 ca         1 8CA      -0.129600
      5 C2           0.0550     3.3940     0.5330 ca         1 8CA      -0.101000
      6 C3           1.2920     3.4250     1.1860 ca         1 8CA      -0.148000
      7 C4           2.1400     2.3380     1.1220 ca         1 8CA      -0.107000
      8 C5           1.7280     1.2100     0.4100 ca         1 8CA      -0.103800
      9 C8           2.3420    -0.0590     0.2010 cc         1 8CA      -0.160400
     10 C13          3.6580    -0.5710     0.6880 c6         1 8CA       0.010800
     11 C12          3.7100    -2.0930     0.5510 c6         1 8CA      -0.072400
     12 C11          3.1910    -2.5460    -0.8100 c6         1 8CA      -0.067400
     13 C10          1.7140    -2.1920    -1.0040 c6         1 8CA      -0.010200
     14 C9           1.4760    -0.7920    -0.5530 cd         1 8CA      -0.075300
     15 N1           0.3500    -0.0500    -0.8470 na         1 8CA      -0.062700
     16 C6           0.4790     1.1960    -0.2640 ca         1 8CA      -0.004200
     17 C20         -0.8430    -0.6500    -1.4130 c3         1 8CA       0.103900
     18 C19         -1.6750    -1.3820    -0.3860 ca         1 8CA      -0.095300
     19 C18         -2.3470    -0.6870     0.6190 ca         1 8CA      -0.089500
     20 C17         -3.1020    -1.3660     1.5650 ca         1 8CA      -0.124500
     21 C16         -3.2060    -2.7520     1.5160 ca         1 8CA      -0.121000
     22 C15         -2.5510    -3.4520     0.5130 ca         1 8CA      -0.124500
     23 C14         -1.7910    -2.7680    -0.4290 ca         1 8CA      -0.089500
     24 H2          -0.5900     4.2620     0.5970 ha         1 8CA       0.116000
     25 H3           1.5800     4.3090     1.7410 ha         1 8CA       0.085000
     26 H4           3.1010     2.3500     1.6230 ha         1 8CA       0.087000
     27 H13          4.4800    -0.1190     0.1220 hc         1 8CA       0.033200
     28 H13A         3.8200    -0.2810     1.7300 hc         1 8CA       0.033200
     29 H12          4.7320    -2.4450     0.7020 hc         1 8CA       0.029200
     30 H12A         3.1020    -2.5500     1.3390 hc         1 8CA       0.029200
     31 H11          3.7830    -2.0720    -1.6000 hc         1 8CA       0.030200
     32 H11A         3.3200    -3.6240    -0.9280 hc         1 8CA       0.030200
     33 H10          1.4350    -2.3260    -2.0530 hc         1 8CA       0.043200
     34 H10A         1.0900    -2.8870    -0.4330 hc         1 8CA       0.043200
     35 H20         -1.4210     0.1290    -1.9030 h1         1 8CA       0.088200
     36 H20A        -0.5360    -1.3420    -2.1980 h1         1 8CA       0.088200
     37 H18         -2.2970     0.3940     0.6620 ha         1 8CA       0.130000
     38 H17         -3.6170    -0.8110     2.3380 ha         1 8CA       0.102000
     39 H16         -3.7960    -3.2800     2.2530 ha         1 8CA       0.095000
     40 H15         -2.6300    -4.5300     0.4610 ha         1 8CA       0.102000
     41 H14         -1.2830    -3.3240    -1.2080 ha         1 8CA       0.130000
@<TRIPOS>BOND
     1     1     2 1   
     2     2     3 1   
     3     2     4 1   
     4     4     5 ar  
     5     4    16 ar  
     6     5     6 ar  
     7     5    24 1   
     8     6     7 ar  
     9     6    25 1   
    10     7     8 ar  
    11     7    26 1   
    12     8     9 1   
    13     8    16 ar  
    14     9    10 1   
    15     9    14 2   
    16    10    11 1   
    17    10    27 1   
    18    10    28 1   
    19    11    12 1   
    20    11    29 1   
    21    11    30 1   
    22    12    13 1   
    23    12    31 1   
    24    12    32 1   
    25    13    14 1   
    26    13    33 1   
    27    13    34 1   
    28    14    15 1   
    29    15    16 1   
    30    15    17 1   
    31    17    18 1   
    32    17    35 1   
    33    17    36 1   
    34    18    19 ar  
    35    18    23 ar  
    36    19    20 ar  
    37    19    37 1   
    38    20    21 ar  
    39    20    38 1   
    40    21    22 ar  
    41    21    39 1   
    42    22    23 ar  
    43    22    40 1   
    44    23    41 1   
@<TRIPOS>SUBSTRUCTURE
     1 8CA         1 TEMP              0 ****  ****    0 ROOT
