@<TRIPOS>MOLECULE
8CB
   41    42     1     0     0
SMALL
No Charge or Current Charge


@<TRIPOS>ATOM
      1 O01          1.5240    -1.4940    -1.8200 oh         1 8CB      -0.545100
      2 O02          0.2130     1.9290     1.3080 oh         1 8CB      -0.545100
      3 C03         -1.3970    -0.9060     0.4400 c6         1 8CB      -0.024500
      4 C04         -0.7130    -0.0120    -0.6430 c6         1 8CB       0.035800
      5 C05         -2.9410    -0.8450     0.3090 c6         1 8CB      -0.068400
      6 C06         -3.4510     0.6030     0.4860 c6         1 8CB      -0.047200
      7 C07         -1.4610     1.3010    -0.8780 c2         1 8CB      -0.251200
      8 C08         -2.6730     1.5930    -0.3740 c2         1 8CB      -0.107400
      9 C09          0.7820     0.2340    -0.3040 ca         1 8CB      -0.259300
     10 C10         -0.8480    -2.3420     0.4270 c2         1 8CB      -0.127400
     11 C11         -3.3680     2.9220    -0.6030 c3         1 8CB      -0.058900
     12 C12          1.8120    -0.5130    -0.9230 ca         1 8CB       0.190100
     13 C13          1.1580     1.1950     0.6640 ca         1 8CB       0.190100
     14 C14         -1.4060    -3.2920    -0.6230 c3         1 8CB      -0.053900
     15 C15          0.0950    -2.7250     1.3040 c2         1 8CB      -0.297000
     16 C16          3.1590    -0.2810    -0.6100 ca         1 8CB      -0.190000
     17 C17          2.5050     1.4170     0.9800 ca         1 8CB      -0.190000
     18 C18          3.5170     0.6870     0.3400 ca         1 8CB      -0.004300
     19 C19          4.9780     0.9280     0.6840 c3         1 8CB      -0.049800
     20 H011         0.5740    -1.7000    -1.7210 ho         1 8CB       0.472000
     21 H021        -0.6350     1.7350     0.8510 ho         1 8CB       0.472000
     22 H031        -1.1550    -0.4740     1.4210 hc         1 8CB       0.060700
     23 H041        -0.7900    -0.5370    -1.6030 hc         1 8CB       0.048700
     24 H051        -3.2520    -1.2130    -0.6780 hc         1 8CB       0.047200
     25 H052        -3.4130    -1.4970     1.0560 hc         1 8CB       0.047200
     26 H061        -4.5170     0.6340     0.2220 hc         1 8CB       0.051200
     27 H062        -3.3840     0.9040     1.5400 hc         1 8CB       0.051200
     28 H071        -0.9390     2.0280    -1.5060 ha         1 8CB       0.183000
     29 H112        -3.5750     3.4260     0.3480 hc         1 8CB       0.044367
     30 H111        -2.7570     3.6000    -1.2100 hc         1 8CB       0.044367
     31 H113        -4.3230     2.7830    -1.1240 hc         1 8CB       0.044367
     32 H142        -1.3280    -2.8740    -1.6330 hc         1 8CB       0.037367
     33 H143        -0.8690    -4.2490    -0.6250 hc         1 8CB       0.037367
     34 H141        -2.4620    -3.5200    -0.4360 hc         1 8CB       0.037367
     35 H151         0.5010    -2.0390     2.0480 ha         1 8CB       0.167000
     36 H152         0.5000    -3.7370     1.3070 ha         1 8CB       0.167000
     37 H161         3.9300    -0.8680    -1.1020 ha         1 8CB       0.128000
     38 H171         2.7630     2.1630     1.7260 ha         1 8CB       0.128000
     39 H191         5.2960     0.2800     1.5090 hc         1 8CB       0.044367
     40 H192         5.6300     0.7230    -0.1740 hc         1 8CB       0.044367
     41 H193         5.1510     1.9670     0.9870 hc         1 8CB       0.044367
@<TRIPOS>BOND
     1     1    12 1   
     2     1    20 1   
     3     2    13 1   
     4     2    21 1   
     5     3     4 1   
     6     3     5 1   
     7     3    10 1   
     8     3    22 1   
     9     4     7 1   
    10     4     9 1   
    11     4    23 1   
    12     5     6 1   
    13     5    24 1   
    14     5    25 1   
    15     6     8 1   
    16     6    26 1   
    17     6    27 1   
    18     7     8 2   
    19     7    28 1   
    20     8    11 1   
    21     9    12 ar  
    22     9    13 ar  
    23    10    14 1   
    24    10    15 2   
    25    11    29 1   
    26    11    30 1   
    27    11    31 1   
    28    12    16 ar  
    29    13    17 ar  
    30    14    32 1   
    31    14    33 1   
    32    14    34 1   
    33    15    35 1   
    34    15    36 1   
    35    16    18 ar  
    36    16    37 1   
    37    17    18 ar  
    38    17    38 1   
    39    18    19 1   
    40    19    39 1   
    41    19    40 1   
    42    19    41 1   
@<TRIPOS>SUBSTRUCTURE
     1 8CB         1 TEMP              0 ****  ****    0 ROOT
