@<TRIPOS>MOLECULE
8CB
   41    42     1     0     0
SMALL
bcc


@<TRIPOS>ATOM
      1 O01          1.5110    -1.4290    -1.9030 oh         1 8CB      -0.506100
      2 O02          0.2550     1.9210     1.3300 oh         1 8CB      -0.506100
      3 C03         -1.3760    -0.8640     0.4740 c6         1 8CB      -0.024500
      4 C04         -0.7280     0.0040    -0.6320 c6         1 8CB       0.035800
      5 C05         -2.8950    -0.8470     0.3150 c6         1 8CB      -0.068400
      6 C06         -3.4420     0.5640     0.4740 c6         1 8CB      -0.047200
      7 C07         -1.4860     1.2910    -0.8610 c2         1 8CB      -0.201200
      8 C08         -2.6980     1.5620    -0.3660 c2         1 8CB      -0.107400
      9 C09          0.7400     0.2480    -0.3420 ca         1 8CB      -0.259300
     10 C10         -0.7990    -2.2570     0.4750 c2         1 8CB      -0.127400
     11 C11         -3.3850     2.8680    -0.6170 c3         1 8CB      -0.058900
     12 C12          1.7550    -0.4920    -0.9610 ca         1 8CB       0.190100
     13 C13          1.1400     1.1730     0.6340 ca         1 8CB       0.190100
     14 C14         -1.2870    -3.2180    -0.5710 c3         1 8CB      -0.053900
     15 C15          0.1190    -2.6100     1.3710 c2         1 8CB      -0.197000
     16 C16          3.0960    -0.3100    -0.6350 ca         1 8CB      -0.208000
     17 C17          2.4800     1.3580     0.9610 ca         1 8CB      -0.208000
     18 C18          3.4670     0.6120     0.3330 ca         1 8CB      -0.004300
     19 C19          4.9100     0.7820     0.7090 c3         1 8CB      -0.049800
     20 H011         0.5780    -1.4620    -2.1330 ho         1 8CB       0.433000
     21 H021        -0.6170     1.9080     0.9070 ho         1 8CB       0.433000
     22 H031        -1.1310    -0.4040     1.4370 hc         1 8CB       0.060700
     23 H041        -0.8260    -0.5440    -1.5790 hc         1 8CB       0.048700
     24 H051        -3.1670    -1.2290    -0.6730 hc         1 8CB       0.047200
     25 H052        -3.3560    -1.5120     1.0490 hc         1 8CB       0.047200
     26 H061        -4.5020     0.5890     0.2030 hc         1 8CB       0.051200
     27 H062        -3.4010     0.8750     1.5240 hc         1 8CB       0.051200
     28 H071        -0.9960     2.0230    -1.4980 ha         1 8CB       0.133000
     29 H112        -3.6430     3.3550     0.3260 hc         1 8CB       0.044367
     30 H111        -2.7670     3.5530    -1.1970 hc         1 8CB       0.044367
     31 H113        -4.3230     2.7130    -1.1550 hc         1 8CB       0.044367
     32 H142        -1.3250    -2.7700    -1.5670 hc         1 8CB       0.037367
     33 H143        -0.6500    -4.1000    -0.6260 hc         1 8CB       0.037367
     34 H141        -2.3030    -3.5540    -0.3540 hc         1 8CB       0.037367
     35 H151         0.4620    -1.9200     2.1330 ha         1 8CB       0.117000
     36 H152         0.5650    -3.5980     1.3720 ha         1 8CB       0.117000
     37 H161         3.8450    -0.9020    -1.1470 ha         1 8CB       0.146000
     38 H171         2.7390     2.0930     1.7150 ha         1 8CB       0.146000
     39 H191         5.1740     0.1310     1.5450 hc         1 8CB       0.044367
     40 H192         5.5710     0.5270    -0.1190 hc         1 8CB       0.044367
     41 H193         5.1270     1.8050     1.0150 hc         1 8CB       0.044367
@<TRIPOS>BOND
     1     1    12 1   
     2     1    20 1   
     3     2    13 1   
     4     2    21 1   
     5     3     4 1   
     6     3     5 1   
     7     3    10 1   
     8     3    22 1   
     9     4     7 1   
    10     4     9 1   
    11     4    23 1   
    12     5     6 1   
    13     5    24 1   
    14     5    25 1   
    15     6     8 1   
    16     6    26 1   
    17     6    27 1   
    18     7     8 2   
    19     7    28 1   
    20     8    11 1   
    21     9    12 ar  
    22     9    13 ar  
    23    10    14 1   
    24    10    15 2   
    25    11    29 1   
    26    11    30 1   
    27    11    31 1   
    28    12    16 ar  
    29    13    17 ar  
    30    14    32 1   
    31    14    33 1   
    32    14    34 1   
    33    15    35 1   
    34    15    36 1   
    35    16    18 ar  
    36    16    37 1   
    37    17    18 ar  
    38    17    38 1   
    39    18    19 1   
    40    19    39 1   
    41    19    40 1   
    42    19    41 1   
@<TRIPOS>SUBSTRUCTURE
     1 8CB         1 TEMP              0 ****  ****    0 ROOT
