@<TRIPOS>MOLECULE
8CC
   26    27     1     0     0
SMALL
abcg2


@<TRIPOS>ATOM
      1 C10         -8.2220   -10.8260    11.1170 ca         1 8CC       0.056000
      2 C15         -9.2050    -9.9640    11.6230 ca         1 8CC      -0.168000
      3 C01         -3.4420   -15.9580    12.0090 c3         1 8CC       0.098300
      4 N02         -4.4460   -14.9160    11.8910 ns         1 8CC      -0.495900
      5 O04         -5.1900   -15.1340    14.0210 o          1 8CC      -0.630100
      6 C05         -6.2320   -13.5130    12.6650 cc         1 8CC      -0.250600
      7 C06         -6.5270   -12.7210    11.5730 cd         1 8CC      -0.113000
      8 C07         -7.5850   -11.8450    11.9470 cd         1 8CC      -0.134000
      9 C08         -7.8950   -12.1460    13.2720 cc         1 8CC      -0.141000
     10 N09         -7.0790   -13.1410    13.6810 na         1 8CC      -0.066000
     11 C11         -7.8830   -10.6550     9.7700 ca         1 8CC      -0.168000
     12 C12         -8.5120    -9.6730     9.0210 ca         1 8CC       0.334900
     13 N13         -9.4510    -8.8510     9.5060 nb         1 8CC      -0.668000
     14 C14         -9.7770    -9.0140    10.7940 ca         1 8CC       0.334900
     15 H1          -9.5230   -10.0240    12.6540 ha         1 8CC       0.117000
     16 H2          -2.9330   -16.0520    11.0530 h1         1 8CC       0.043700
     17 H3          -2.7090   -15.7100    12.7790 h1         1 8CC       0.043700
     18 H4          -3.8990   -16.9150    12.2660 h1         1 8CC       0.043700
     19 H5          -4.5430   -14.4410    11.0100 hn         1 8CC       0.320500
     20 H6          -6.0370   -12.7580    10.6140 ha         1 8CC       0.130000
     21 H7          -8.6330   -11.7260    13.9330 h4         1 8CC       0.154000
     22 H8          -7.0740   -13.5700    14.5940 hn         1 8CC       0.373000
     23 H9          -7.1370   -11.2800     9.2990 ha         1 8CC       0.117000
     24 H10         -8.2480    -9.5410     7.9770 h4         1 8CC       0.016100
     25 H11        -10.5380    -8.3480    11.1860 h4         1 8CC       0.016100
     26 C03         -5.2530   -14.5810    12.9140 c          1 8CC       0.633700
@<TRIPOS>BOND
     1     1     2 ar  
     2     1     8 1   
     3     1    11 ar  
     4     2    14 ar  
     5     2    15 1   
     6     3     4 1   
     7     3    16 1   
     8     3    17 1   
     9     3    18 1   
    10     4    19 1   
    11     4    26 1   
    12     5    26 2   
    13     6     7 2   
    14     6    10 1   
    15     6    26 1   
    16     7     8 1   
    17     7    20 1   
    18     8     9 2   
    19     9    10 1   
    20     9    21 1   
    21    10    22 1   
    22    11    12 ar  
    23    11    23 1   
    24    12    13 ar  
    25    12    24 1   
    26    13    14 ar  
    27    14    25 1   
@<TRIPOS>SUBSTRUCTURE
     1 8CC         1 TEMP              0 ****  ****    0 ROOT
