@<TRIPOS>MOLECULE
8CC
   26    27     1     0     0
SMALL
No Charge or Current Charge


@<TRIPOS>ATOM
      1 C10         -8.1850   -10.8720    11.1650 ca         1 8CC       0.056000
      2 C15         -9.2200   -10.0120    11.5790 ca         1 8CC      -0.168000
      3 C01         -3.4840   -15.8460    11.7340 c3         1 8CC       0.098300
      4 N02         -4.5400   -14.8400    11.8630 ns         1 8CC      -0.495900
      5 O04         -5.0710   -15.2520    14.0370 o          1 8CC      -0.630100
      6 C05         -6.2800   -13.5440    12.9030 cc         1 8CC      -0.250600
      7 C06         -6.5560   -12.7820    11.7920 cd         1 8CC      -0.113000
      8 C07         -7.5950   -11.8660    12.0870 cd         1 8CC      -0.134000
      9 C08         -7.9660   -12.0620    13.3940 cc         1 8CC      -0.141000
     10 N09         -7.1590   -13.0890    13.8890 na         1 8CC      -0.066000
     11 C11         -7.7390   -10.7420     9.8350 ca         1 8CC      -0.168000
     12 C12         -8.3290    -9.7830     8.9960 ca         1 8CC       0.334900
     13 N13         -9.3220    -8.9600     9.3990 nb         1 8CC      -0.668000
     14 C14         -9.7540    -9.0810    10.6740 ca         1 8CC       0.334900
     15 H1          -9.6170   -10.0510    12.5870 ha         1 8CC       0.117000
     16 H2          -3.0720   -15.8170    10.7170 h1         1 8CC       0.043700
     17 H3          -2.6830   -15.6360    12.4550 h1         1 8CC       0.043700
     18 H4          -3.8980   -16.8440    11.9290 h1         1 8CC       0.043700
     19 H5          -4.7670   -14.2640    11.0640 hn         1 8CC       0.320500
     20 H6          -6.0560   -12.8680    10.8330 ha         1 8CC       0.130000
     21 H7          -8.7160   -11.5750    14.0060 h4         1 8CC       0.154000
     22 H8          -7.2040   -13.4560    14.8360 hn         1 8CC       0.373000
     23 H9          -6.9460   -11.3670     9.4390 ha         1 8CC       0.117000
     24 H10         -7.9950    -9.6700     7.9650 h4         1 8CC       0.016100
     25 H11        -10.5550    -8.4090    10.9800 h4         1 8CC       0.016100
     26 C03         -5.2610   -14.6150    13.0110 c          1 8CC       0.633700
@<TRIPOS>BOND
     1     1     2 ar  
     2     1     8 1   
     3     1    11 ar  
     4     2    14 ar  
     5     2    15 1   
     6     3     4 1   
     7     3    16 1   
     8     3    17 1   
     9     3    18 1   
    10     4    19 1   
    11     4    26 1   
    12     5    26 2   
    13     6     7 2   
    14     6    10 1   
    15     6    26 1   
    16     7     8 1   
    17     7    20 1   
    18     8     9 2   
    19     9    10 1   
    20     9    21 1   
    21    10    22 1   
    22    11    12 ar  
    23    11    23 1   
    24    12    13 ar  
    25    12    24 1   
    26    13    14 ar  
    27    14    25 1   
@<TRIPOS>SUBSTRUCTURE
     1 8CC         1 TEMP              0 ****  ****    0 ROOT
