@<TRIPOS>MOLECULE
8CD
   46    48     1     0     0
SMALL
abcg2


@<TRIPOS>ATOM
      1 N3         -26.4630   -39.4110     5.4860 nt         1 8CD      -0.595000
      2 C4         -25.6510   -39.3320     8.3560 ca         1 8CD       0.172100
      3 N2         -25.9220   -38.1460    14.1690 ns         1 8CD      -0.502900
      4 C7         -22.8890   -38.9090     8.7690 ca         1 8CD      -0.038000
      5 C6         -23.7820   -39.0120     9.8600 ca         1 8CD      -0.046000
      6 C9         -21.1070   -38.5520    10.3300 ca         1 8CD       0.349900
      7 C13        -25.4260   -40.4350    14.3370 c5         1 8CD      -0.077400
      8 C8         -21.5140   -38.6720     9.0350 ca         1 8CD      -0.157000
      9 C18        -25.1550   -39.3890     5.7850 c          1 8CD       0.613700
     10 C16        -23.4180   -39.0470     7.4730 ca         1 8CD      -0.027000
     11 O4         -24.2890   -39.4420     4.9080 o          1 8CD      -0.628100
     12 C17        -24.7590   -39.2600     7.2380 ca         1 8CD      -0.150600
     13 C2         -27.9450   -39.6860     9.1500 c3         1 8CD       0.181300
     14 C3         -29.2860   -39.3510     8.5300 c3         1 8CD      -0.108600
     15 C1         -27.8760   -41.1080     9.6790 c3         1 8CD      -0.108600
     16 N1         -21.9510   -38.6610    11.3990 nb         1 8CD      -0.757000
     17 C10        -23.2140   -38.8840    11.1710 ca         1 8CD       0.591300
     18 C5         -25.1530   -39.2160     9.6390 ca         1 8CD      -0.177000
     19 O2         -24.0810   -39.0250    12.1890 os         1 8CD      -0.475300
     20 C11        -23.6210   -38.7910    13.5260 c3         1 8CD       0.148600
     21 C12        -24.7970   -39.0250    14.4600 c5         1 8CD       0.104700
     22 C15        -26.9700   -38.7380    13.5580 c          1 8CD       0.562000
     23 O3         -27.9580   -38.1590    13.1130 o          1 8CD      -0.565000
     24 C14        -26.7150   -40.2330    13.5290 c5         1 8CD      -0.164400
     25 H21        -26.7320   -39.5100     4.5190 hn         1 8CD       0.328000
     26 H20        -27.1620   -39.4190     6.2120 hn         1 8CD       0.328000
     27 H18        -25.8350   -37.1400    14.1920 hn         1 8CD       0.326500
     28 H11        -20.0670   -38.3640    10.5720 h4         1 8CD       0.022100
     29 H14        -25.6550   -40.8180    15.3310 hc         1 8CD       0.059700
     30 H15        -24.7370   -41.1290    13.8610 hc         1 8CD       0.059700
     31 H10        -20.8070   -38.5950     8.2200 ha         1 8CD       0.131000
     32 H19        -22.7560   -38.9850     6.6200 ha         1 8CD       0.150000
     33 H5         -27.7230   -38.9680     9.9410 h1         1 8CD       0.063700
     34 H6         -30.0700   -39.4470     9.2820 hc         1 8CD       0.050367
     35 H7         -29.2910   -38.3280     8.1520 hc         1 8CD       0.050367
     36 H8         -29.5080   -40.0360     7.7090 hc         1 8CD       0.050367
     37 H4         -28.5920   -41.2300    10.4930 hc         1 8CD       0.050367
     38 H2         -28.1280   -41.8130     8.8850 hc         1 8CD       0.050367
     39 H3         -26.8850   -41.3520    10.0620 hc         1 8CD       0.050367
     40 H9         -25.8070   -39.2730    10.4920 ha         1 8CD       0.136000
     41 H12        -22.8110   -39.4810    13.7700 h1         1 8CD       0.060200
     42 H13        -23.2460   -37.7690    13.6070 h1         1 8CD       0.060200
     43 H1         -24.4340   -38.8440    15.4740 h1         1 8CD       0.070700
     44 H16        -27.5740   -40.7580    13.9460 hc         1 8CD       0.075200
     45 H17        -26.6190   -40.5410    12.4870 hc         1 8CD       0.075200
     46 O1         -26.9680   -39.4980     8.0880 os         1 8CD      -0.393100
@<TRIPOS>BOND
     1     1     9 1   
     2     1    25 1   
     3     1    26 1   
     4     2    12 ar  
     5     2    18 ar  
     6     2    46 1   
     7     3    21 1   
     8     3    22 1   
     9     3    27 1   
    10     4     5 ar  
    11     4     8 ar  
    12     4    10 ar  
    13     5    17 ar  
    14     5    18 ar  
    15     6     8 ar  
    16     6    16 ar  
    17     6    28 1   
    18     7    21 1   
    19     7    24 1   
    20     7    29 1   
    21     7    30 1   
    22     8    31 1   
    23     9    11 2   
    24     9    12 1   
    25    10    12 ar  
    26    10    32 1   
    27    13    14 1   
    28    13    15 1   
    29    13    33 1   
    30    13    46 1   
    31    14    34 1   
    32    14    35 1   
    33    14    36 1   
    34    15    37 1   
    35    15    38 1   
    36    15    39 1   
    37    16    17 ar  
    38    17    19 1   
    39    18    40 1   
    40    19    20 1   
    41    20    21 1   
    42    20    41 1   
    43    20    42 1   
    44    21    43 1   
    45    22    23 2   
    46    22    24 1   
    47    24    44 1   
    48    24    45 1   
@<TRIPOS>SUBSTRUCTURE
     1 8CD         1 TEMP              0 ****  ****    0 ROOT
