@<TRIPOS>MOLECULE
8CD
   46    48     1     0     0
SMALL
No Charge or Current Charge


@<TRIPOS>ATOM
      1 N3         -26.5180   -39.4400     5.4350 nt         1 8CD      -0.595000
      2 C4         -25.6480   -39.2360     8.2790 ca         1 8CD       0.172100
      3 N2         -25.9840   -38.1260    14.1500 ns         1 8CD      -0.502900
      4 C7         -22.8730   -38.9560     8.7200 ca         1 8CD      -0.038000
      5 C6         -23.7460   -38.9880     9.8180 ca         1 8CD      -0.046000
      6 C9         -21.0450   -38.7180    10.2920 ca         1 8CD       0.349900
      7 C13        -25.4480   -40.3550    14.6130 c5         1 8CD      -0.077400
      8 C8         -21.4970   -38.8180     8.9660 ca         1 8CD      -0.157000
      9 C18        -25.2090   -39.3060     5.7200 c          1 8CD       0.613700
     10 C16        -23.3730   -39.0590     7.4120 ca         1 8CD      -0.027000
     11 O4         -24.4210   -39.2760     4.7880 o          1 8CD      -0.628100
     12 C17        -24.7600   -39.2000     7.1670 ca         1 8CD      -0.150600
     13 C2         -27.9800   -39.6250     9.1060 c3         1 8CD       0.181300
     14 C3         -29.3650   -39.3700     8.4840 c3         1 8CD      -0.108600
     15 C1         -27.8170   -41.0880     9.5770 c3         1 8CD      -0.108600
     16 N1         -21.8740   -38.7530    11.3590 nb         1 8CD      -0.757000
     17 C10        -23.2010   -38.8860    11.1260 ca         1 8CD       0.591300
     18 C5         -25.1310   -39.1190     9.5890 ca         1 8CD      -0.177000
     19 O2         -24.0630   -38.9430    12.1990 os         1 8CD      -0.475300
     20 C11        -23.6070   -38.7790    13.5570 c3         1 8CD       0.148600
     21 C12        -24.8110   -38.9250    14.5360 c5         1 8CD       0.104700
     22 C15        -27.0190   -38.8360    13.6030 c          1 8CD       0.562000
     23 O3         -28.1460   -38.3850    13.4830 o          1 8CD      -0.565000
     24 C14        -26.5510   -40.2840    13.5280 c5         1 8CD      -0.164400
     25 H21        -26.8160   -39.5100     4.4750 hn         1 8CD       0.328000
     26 H20        -27.1820   -39.4650     6.1960 hn         1 8CD       0.328000
     27 H18        -26.1320   -37.1480    14.3710 hn         1 8CD       0.326500
     28 H11        -19.9830   -38.6100    10.5070 h4         1 8CD       0.022100
     29 H14        -25.8910   -40.5240    15.6020 hc         1 8CD       0.059700
     30 H15        -24.7230   -41.1590    14.4400 hc         1 8CD       0.059700
     31 H10        -20.7800   -38.7860     8.1510 ha         1 8CD       0.131000
     32 H19        -22.6720   -39.0300     6.5790 ha         1 8CD       0.150000
     33 H5         -27.8610   -38.9350     9.9530 h1         1 8CD       0.063700
     34 H6         -30.1560   -39.5510     9.2210 hc         1 8CD       0.050367
     35 H7         -29.4470   -38.3310     8.1450 hc         1 8CD       0.050367
     36 H8         -29.5360   -40.0300     7.6250 hc         1 8CD       0.050367
     37 H4         -28.5810   -41.3350    10.3220 hc         1 8CD       0.050367
     38 H2         -27.9240   -41.7800     8.7340 hc         1 8CD       0.050367
     39 H3         -26.8360   -41.2550    10.0360 hc         1 8CD       0.050367
     40 H9         -25.7960   -39.1220    10.4450 ha         1 8CD       0.136000
     41 H12        -22.8460   -39.5280    13.8120 h1         1 8CD       0.060200
     42 H13        -23.1640   -37.7830    13.6920 h1         1 8CD       0.060200
     43 H1         -24.4460   -38.6360    15.5310 h1         1 8CD       0.070700
     44 H16        -27.3830   -40.9840    13.6500 hc         1 8CD       0.075200
     45 H17        -26.0950   -40.4460    12.5460 hc         1 8CD       0.075200
     46 O1         -27.0130   -39.3630     8.0680 os         1 8CD      -0.393100
@<TRIPOS>BOND
     1     1     9 1   
     2     1    25 1   
     3     1    26 1   
     4     2    12 ar  
     5     2    18 ar  
     6     2    46 1   
     7     3    21 1   
     8     3    22 1   
     9     3    27 1   
    10     4     5 ar  
    11     4     8 ar  
    12     4    10 ar  
    13     5    17 ar  
    14     5    18 ar  
    15     6     8 ar  
    16     6    16 ar  
    17     6    28 1   
    18     7    21 1   
    19     7    24 1   
    20     7    29 1   
    21     7    30 1   
    22     8    31 1   
    23     9    11 2   
    24     9    12 1   
    25    10    12 ar  
    26    10    32 1   
    27    13    14 1   
    28    13    15 1   
    29    13    33 1   
    30    13    46 1   
    31    14    34 1   
    32    14    35 1   
    33    14    36 1   
    34    15    37 1   
    35    15    38 1   
    36    15    39 1   
    37    16    17 ar  
    38    17    19 1   
    39    18    40 1   
    40    19    20 1   
    41    20    21 1   
    42    20    41 1   
    43    20    42 1   
    44    21    43 1   
    45    22    23 2   
    46    22    24 1   
    47    24    44 1   
    48    24    45 1   
@<TRIPOS>SUBSTRUCTURE
     1 8CD         1 TEMP              0 ****  ****    0 ROOT
