@<TRIPOS>MOLECULE
8CE
   52    55     1     0     0
SMALL
abcg2


@<TRIPOS>ATOM
      1 C02         38.4300   -39.3610   -70.8430 cc         1 8CE      -0.173000
      2 C03         39.5230   -38.9470   -71.5280 cd         1 8CE      -0.070000
      3 C04         40.8150   -38.9320   -70.9390 cd         1 8CE      -0.195300
      4 C05         40.9650   -39.3430   -69.6350 cc         1 8CE       0.354000
      5 C06         39.8150   -39.7780   -68.9240 cc         1 8CE      -0.113000
      6 C07         37.6760   -40.2410   -68.6360 cc         1 8CE      -0.172300
      7 C08         42.0130   -38.4910   -71.7430 c6         1 8CE       0.247600
      8 C09         44.5690   -38.9630   -68.9050 ca         1 8CE      -0.113300
      9 C10         38.4080   -40.5100   -67.5010 cd         1 8CE       0.066400
     10 C11         43.1830   -38.1550   -70.8260 c6         1 8CE       0.146300
     11 C18         41.3160   -36.3380   -74.6460 c3         1 8CE       0.157600
     12 C19         39.1600   -35.7670   -73.8350 c3         1 8CE       0.146900
     13 C20         36.2360   -40.3740   -68.9650 c3         1 8CE      -0.015900
     14 C21         37.9090   -41.0420   -66.2020 c3         1 8CE      -0.014900
     15 C22         43.3720   -39.2600   -69.7710 c6         1 8CE       0.230800
     16 C23         45.7620   -39.6480   -69.1050 ca         1 8CE      -0.093000
     17 C24         46.8870   -39.3500   -68.3470 ca         1 8CE      -0.115000
     18 C25         46.8280   -38.3590   -67.3770 ca         1 8CE      -0.101000
     19 C26         45.6390   -37.6690   -67.1710 ca         1 8CE      -0.115000
     20 C27         44.5180   -37.9680   -67.9300 ca         1 8CE      -0.093000
     21 N01         39.7240   -40.2210   -67.6870 nd         1 8CE      -0.301600
     22 N02         38.5930   -39.7710   -69.5460 na         1 8CE       0.159100
     23 N03         42.1670   -39.3340   -68.9770 nu         1 8CE      -0.919200
     24 O01         44.3250   -38.0090   -71.6240 oh         1 8CE      -0.718000
     25 O02         41.6590   -37.3740   -72.5220 os         1 8CE      -0.456000
     26 O03         39.9270   -36.5630   -74.7050 os         1 8CE      -0.460000
     27 H1          37.4320   -39.3910   -71.2520 h4         1 8CE       0.146000
     28 H2          39.3970   -38.6220   -72.5520 ha         1 8CE       0.142000
     29 H3          42.3220   -39.3200   -72.3990 h1         1 8CE       0.053700
     30 H4          42.9370   -37.2250   -70.2920 h1         1 8CE       0.062700
     31 H5          41.8360   -38.3900   -74.3160 h1         1 8CE       0.036200
     32 H6          43.1310   -37.2360   -73.9900 h1         1 8CE       0.036200
     33 H7          41.7070   -36.3470   -75.6690 h1         1 8CE       0.047700
     34 H8          41.5430   -35.3480   -74.2310 h1         1 8CE       0.047700
     35 H9          38.1090   -35.9880   -74.0260 h1         1 8CE       0.031033
     36 H10         39.3650   -35.9680   -72.7800 h1         1 8CE       0.031033
     37 H11         39.3180   -34.6960   -74.0130 h1         1 8CE       0.031033
     38 H12         36.0680   -41.0590   -69.7990 hc         1 8CE       0.045700
     39 H13         35.6870   -40.7610   -68.1090 hc         1 8CE       0.045700
     40 H14         35.7880   -39.4150   -69.2350 hc         1 8CE       0.045700
     41 H15         38.0810   -40.3300   -65.3930 hc         1 8CE       0.044367
     42 H16         36.8420   -41.2540   -66.2370 hc         1 8CE       0.044367
     43 H17         38.4230   -41.9660   -65.9330 hc         1 8CE       0.044367
     44 H18         43.5550   -40.2060   -70.3040 h1         1 8CE       0.050700
     45 H19         45.8120   -40.4300   -69.8540 ha         1 8CE       0.122500
     46 H20         47.8070   -39.8950   -68.5120 ha         1 8CE       0.115500
     47 H21         47.7020   -38.1260   -66.7820 ha         1 8CE       0.115000
     48 H22         45.5860   -36.8950   -66.4150 ha         1 8CE       0.115500
     49 H23         43.5950   -37.4270   -67.7610 ha         1 8CE       0.122500
     50 H24         42.2120   -39.9320   -68.1640 hn         1 8CE       0.500000
     51 H25         45.0110   -37.5710   -71.1090 ho         1 8CE       0.514000
     52 C17         42.0540   -37.4080   -73.8750 c3         1 8CE       0.137600
@<TRIPOS>BOND
     1     1     2 2   
     2     1    22 1   
     3     1    27 1   
     4     2     3 1   
     5     2    28 1   
     6     3     4 2   
     7     3     7 1   
     8     4     5 1   
     9     4    23 1   
    10     5    21 2   
    11     5    22 1   
    12     6     9 2   
    13     6    13 1   
    14     6    22 1   
    15     7    10 1   
    16     7    25 1   
    17     7    29 1   
    18     8    15 1   
    19     8    16 ar  
    20     8    20 ar  
    21     9    14 1   
    22     9    21 1   
    23    10    15 1   
    24    10    24 1   
    25    10    30 1   
    26    11    26 1   
    27    11    33 1   
    28    11    34 1   
    29    11    52 1   
    30    12    26 1   
    31    12    35 1   
    32    12    36 1   
    33    12    37 1   
    34    13    38 1   
    35    13    39 1   
    36    13    40 1   
    37    14    41 1   
    38    14    42 1   
    39    14    43 1   
    40    15    23 1   
    41    15    44 1   
    42    16    17 ar  
    43    16    45 1   
    44    17    18 ar  
    45    17    46 1   
    46    18    19 ar  
    47    18    47 1   
    48    19    20 ar  
    49    19    48 1   
    50    20    49 1   
    51    23    50 1   
    52    24    51 1   
    53    25    52 1   
    54    31    52 1   
    55    32    52 1   
@<TRIPOS>SUBSTRUCTURE
     1 8CE         1 TEMP              0 ****  ****    0 ROOT
