@<TRIPOS>MOLECULE
8CE
   52    55     1     0     0
SMALL
No Charge or Current Charge


@<TRIPOS>ATOM
      1 C02         38.1760   -39.0530   -70.4860 cc         1 8CE      -0.173000
      2 C03         39.2480   -38.6320   -71.2710 cd         1 8CE      -0.070000
      3 C04         40.6360   -38.7520   -70.8630 cd         1 8CE      -0.195300
      4 C05         40.9040   -39.3320   -69.6440 cc         1 8CE       0.354000
      5 C06         39.8190   -39.7660   -68.8290 cc         1 8CE      -0.113000
      6 C07         37.6340   -40.0900   -68.3490 cc         1 8CE      -0.172300
      7 C08         41.7780   -38.2850   -71.7620 c6         1 8CE       0.247600
      8 C09         44.5850   -39.0610   -69.0770 ca         1 8CE      -0.113300
      9 C10         38.4570   -40.5500   -67.3380 cd         1 8CE       0.066400
     10 C11         43.1050   -38.0530   -70.9400 c6         1 8CE       0.146300
     11 C18         41.3540   -35.5420   -74.3660 c3         1 8CE       0.157600
     12 C19         39.5150   -37.0420   -74.9950 c3         1 8CE       0.146900
     13 C20         36.1300   -40.0960   -68.4750 c3         1 8CE      -0.015900
     14 C21         38.0350   -41.2010   -66.0460 c3         1 8CE      -0.014900
     15 C22         43.3650   -39.2680   -69.9860 c6         1 8CE       0.230800
     16 C23         45.6800   -39.9460   -69.1540 ca         1 8CE      -0.093000
     17 C24         46.8040   -39.7590   -68.3300 ca         1 8CE      -0.115000
     18 C25         46.8410   -38.6890   -67.4210 ca         1 8CE      -0.101000
     19 C26         45.7520   -37.8060   -67.3340 ca         1 8CE      -0.115000
     20 C27         44.6280   -37.9910   -68.1580 ca         1 8CE      -0.093000
     21 N01         39.8020   -40.3490   -67.6380 nd         1 8CE      -0.301600
     22 N02         38.5380   -39.6020   -69.2530 na         1 8CE       0.159100
     23 N03         42.1760   -39.5260   -69.1680 nu         1 8CE      -0.919200
     24 O01         44.2630   -37.8190   -71.7830 oh         1 8CE      -0.718000
     25 O02         41.3260   -37.1060   -72.4860 os         1 8CE      -0.456000
     26 O03         40.5860   -36.1770   -75.4190 os         1 8CE      -0.460000
     27 H1          37.1290   -38.9850   -70.7480 h4         1 8CE       0.146000
     28 H2          39.0220   -38.1940   -72.2370 ha         1 8CE       0.142000
     29 H3          41.9710   -39.0790   -72.4980 h1         1 8CE       0.053700
     30 H4          42.9320   -37.1690   -70.3080 h1         1 8CE       0.062700
     31 H5          42.5090   -37.3880   -74.2110 h1         1 8CE       0.036200
     32 H6          43.0350   -36.0790   -73.1260 h1         1 8CE       0.036200
     33 H7          42.0700   -34.8410   -74.8150 h1         1 8CE       0.047700
     34 H8          40.7060   -34.9610   -73.6970 h1         1 8CE       0.047700
     35 H9          38.9160   -37.3540   -75.8600 h1         1 8CE       0.031033
     36 H10         39.9040   -37.9490   -74.5160 h1         1 8CE       0.031033
     37 H11         38.8500   -36.5270   -74.2890 h1         1 8CE       0.031033
     38 H12         35.8130   -40.6840   -69.3440 hc         1 8CE       0.045700
     39 H13         35.6570   -40.5300   -67.5870 hc         1 8CE       0.045700
     40 H14         35.7440   -39.0770   -68.5940 hc         1 8CE       0.045700
     41 H15         37.4010   -40.5280   -65.4590 hc         1 8CE       0.044367
     42 H16         37.4660   -42.1180   -66.2400 hc         1 8CE       0.044367
     43 H17         38.9010   -41.4700   -65.4290 hc         1 8CE       0.044367
     44 H18         43.5500   -40.1500   -70.6180 h1         1 8CE       0.050700
     45 H19         45.6640   -40.7790   -69.8540 ha         1 8CE       0.122500
     46 H20         47.6460   -40.4450   -68.3960 ha         1 8CE       0.115500
     47 H21         47.7110   -38.5460   -66.7830 ha         1 8CE       0.115000
     48 H22         45.7780   -36.9790   -66.6280 ha         1 8CE       0.115500
     49 H23         43.7870   -37.3050   -68.0760 ha         1 8CE       0.122500
     50 H24         42.2500   -40.0310   -68.2840 hn         1 8CE       0.500000
     51 H25         45.0350   -37.7270   -71.1770 ho         1 8CE       0.514000
     52 C17         42.1590   -36.5870   -73.5460 c3         1 8CE       0.137600
@<TRIPOS>BOND
     1     1     2 2   
     2     1    22 1   
     3     1    27 1   
     4     2     3 1   
     5     2    28 1   
     6     3     4 2   
     7     3     7 1   
     8     4     5 1   
     9     4    23 1   
    10     5    21 2   
    11     5    22 1   
    12     6     9 2   
    13     6    13 1   
    14     6    22 1   
    15     7    10 1   
    16     7    25 1   
    17     7    29 1   
    18     8    15 1   
    19     8    16 ar  
    20     8    20 ar  
    21     9    14 1   
    22     9    21 1   
    23    10    15 1   
    24    10    24 1   
    25    10    30 1   
    26    11    26 1   
    27    11    33 1   
    28    11    34 1   
    29    11    52 1   
    30    12    26 1   
    31    12    35 1   
    32    12    36 1   
    33    12    37 1   
    34    13    38 1   
    35    13    39 1   
    36    13    40 1   
    37    14    41 1   
    38    14    42 1   
    39    14    43 1   
    40    15    23 1   
    41    15    44 1   
    42    16    17 ar  
    43    16    45 1   
    44    17    18 ar  
    45    17    46 1   
    46    18    19 ar  
    47    18    47 1   
    48    19    20 ar  
    49    19    48 1   
    50    20    49 1   
    51    23    50 1   
    52    24    51 1   
    53    25    52 1   
    54    31    52 1   
    55    32    52 1   
@<TRIPOS>SUBSTRUCTURE
     1 8CE         1 TEMP              0 ****  ****    0 ROOT
