@<TRIPOS>MOLECULE
8CF
   44    46     1     0     0
SMALL
bcc


@<TRIPOS>ATOM
      1 C03          2.2610    -0.8030    -0.0460 cc         1 8CF       0.446600
      2 C04          0.9730    -0.3530    -0.0950 cd         1 8CF      -0.367600
      3 C05          0.2250    -1.5640    -0.1150 cd         1 8CF       0.477800
      4 C06         -1.2190    -1.7770    -0.1350 ca         1 8CF      -0.289500
      5 N08          3.4120    -0.0770     0.0280 ns         1 8CF      -0.561400
      6 C09          0.8330     1.9090    -1.1310 ca         1 8CF      -0.081500
      7 C10          0.4380     3.2330    -1.1060 ca         1 8CF      -0.193500
      8 C11         -0.2740     3.7340    -0.0140 ca         1 8CF       0.149100
      9 C13         -0.1580     1.5630     1.0180 ca         1 8CF      -0.081500
     10 N01          1.0240    -2.6010    -0.0860 nc         1 8CF      -0.451300
     11 O02          2.3040    -2.1260    -0.0350 os         1 8CF      -0.077100
     12 C07          0.5420     1.0500    -0.0690 ca         1 8CF      -0.056000
     13 C12         -0.5710     2.8870     1.0540 ca         1 8CF      -0.193500
     14 C14         -2.0870    -0.7630    -0.5430 ca         1 8CF      -0.012000
     15 C15         -3.4520    -0.9330    -0.5290 ca         1 8CF      -0.068600
     16 C16         -4.0080    -2.1410    -0.0960 ca         1 8CF       0.208100
     17 C17         -3.1590    -3.1660     0.2930 ca         1 8CF      -0.289000
     18 C18         -1.7770    -3.0090     0.2650 ca         1 8CF       0.242100
     19 O19         -1.0440    -4.0610     0.6380 oh         1 8CF      -0.497100
     20 O20         -5.3380    -2.2530    -0.0860 oh         1 8CF      -0.469100
     21 CL1         -4.5000     0.3420    -1.0460 cl         1 8CF      -0.089400
     22 C23         -1.3270     5.5960     1.0150 c3         1 8CF       0.124700
     23 C24          4.7110    -0.5390    -0.0240 c          1 8CF       0.674100
     24 C25          5.7320     0.5620     0.1180 c3         1 8CF      -0.156400
     25 O26          4.9800    -1.7090    -0.1660 o          1 8CF      -0.520100
     26 C27          7.1650     0.0660     0.0640 c3         1 8CF      -0.079100
     27 H1           3.2750     0.9210     0.1230 hn         1 8CF       0.343500
     28 H2           1.3670     1.5340    -1.9960 ha         1 8CF       0.138000
     29 H3           0.6700     3.8880    -1.9370 ha         1 8CF       0.144000
     30 H4          -0.3910     0.9200     1.8580 ha         1 8CF       0.138000
     31 H5          -1.1130     3.2390     1.9200 ha         1 8CF       0.144000
     32 H6          -1.6870     0.1790    -0.8880 ha         1 8CF       0.160000
     33 H7          -3.5710    -4.1150     0.6180 ha         1 8CF       0.153000
     34 H8          -0.0930    -3.8770     0.5040 ho         1 8CF       0.475000
     35 H9          -5.6040    -3.1200     0.2430 ho         1 8CF       0.435000
     36 H10         -1.5100     6.6350     0.7550 h1         1 8CF       0.043033
     37 H11         -2.2860     5.1020     1.1880 h1         1 8CF       0.043033
     38 H12         -0.7400     5.5610     1.9360 h1         1 8CF       0.043033
     39 H13          5.5520     1.3000    -0.6690 hc         1 8CF       0.063200
     40 H14          5.5420     1.0850     1.0600 hc         1 8CF       0.063200
     41 H15          7.3690    -0.6640     0.8460 hc         1 8CF       0.048033
     42 H16          7.3960    -0.3940    -0.8960 hc         1 8CF       0.048033
     43 H17          7.8480     0.9020     0.2040 hc         1 8CF       0.048033
     44 O22         -0.6270     5.0280    -0.0760 os         1 8CF      -0.316900
@<TRIPOS>BOND
     1     1     2 2   
     2     1     5 1   
     3     1    11 1   
     4     2     3 1   
     5     2    12 1   
     6     3     4 1   
     7     3    10 2   
     8     4    14 ar  
     9     4    18 ar  
    10     5    23 1   
    11     5    27 1   
    12     6     7 ar  
    13     6    12 ar  
    14     6    28 1   
    15     7     8 ar  
    16     7    29 1   
    17     8    13 ar  
    18     8    44 1   
    19     9    12 ar  
    20     9    13 ar  
    21     9    30 1   
    22    10    11 1   
    23    13    31 1   
    24    14    15 ar  
    25    14    32 1   
    26    15    16 ar  
    27    15    21 1   
    28    16    17 ar  
    29    16    20 1   
    30    17    18 ar  
    31    17    33 1   
    32    18    19 1   
    33    19    34 1   
    34    20    35 1   
    35    22    36 1   
    36    22    37 1   
    37    22    38 1   
    38    22    44 1   
    39    23    24 1   
    40    23    25 2   
    41    24    26 1   
    42    24    39 1   
    43    24    40 1   
    44    26    41 1   
    45    26    42 1   
    46    26    43 1   
@<TRIPOS>SUBSTRUCTURE
     1 8CF         1 TEMP              0 ****  ****    0 ROOT
