@<TRIPOS>MOLECULE
8CF
   44    46     1     0     0
SMALL
No Charge or Current Charge


@<TRIPOS>ATOM
      1 C03          2.3700    -0.9380    -0.5070 cc         1 8CF       0.336900
      2 C04          1.1180    -0.4800    -0.2050 cd         1 8CF      -0.237000
      3 C05          0.3080    -1.6500    -0.2320 cd         1 8CF       0.412500
      4 C06         -1.1570    -1.7320    -0.0920 ca         1 8CF      -0.289500
      5 N08          3.5190    -0.1730    -0.5430 ns         1 8CF      -0.494400
      6 C09          1.2990     1.9770    -0.7570 ca         1 8CF      -0.063500
      7 C10          0.8710     3.3060    -0.5880 ca         1 8CF      -0.175500
      8 C11         -0.1730     3.6120     0.2960 ca         1 8CF       0.149100
      9 C13         -0.3680     1.2440     0.8460 ca         1 8CF      -0.063500
     10 N01          1.0020    -2.7590    -0.4260 nc         1 8CF      -0.451300
     11 O02          2.3510    -2.3060    -0.6150 os         1 8CF      -0.032700
     12 C07          0.6820     0.9270    -0.0420 ca         1 8CF      -0.056000
     13 C12         -0.7950     2.5730     1.0160 ca         1 8CF      -0.175500
     14 C14         -1.9710    -0.8150    -0.7940 ca         1 8CF       0.006000
     15 C15         -3.3700    -0.8750    -0.6940 ca         1 8CF       0.023000
     16 C16         -3.9740    -1.8740     0.0950 ca         1 8CF       0.208100
     17 C17         -3.1750    -2.8130     0.7600 ca         1 8CF      -0.271000
     18 C18         -1.7800    -2.7540     0.6550 ca         1 8CF       0.242100
     19 O19         -1.0420    -3.6960     1.2970 oh         1 8CF      -0.536100
     20 O20         -5.3330    -1.9520     0.2080 oh         1 8CF      -0.508100
     21 Cl1         -4.3430     0.3120    -1.5670 cl         1 8CF      -0.181000
     22 C23         -1.6150     5.3500     1.2910 c3         1 8CF       0.147900
     23 C24          4.7960    -0.5910    -0.8320 c          1 8CF       0.607100
     24 C25          5.8620     0.5100    -0.7680 c3         1 8CF      -0.156400
     25 O26          5.0670    -1.7390    -1.1470 o          1 8CF      -0.520100
     26 C27          6.7600     0.3630     0.4810 c3         1 8CF      -0.079100
     27 H1           3.4330     0.8040    -0.3040 hn         1 8CF       0.343500
     28 H2           2.0800     1.7730    -1.4840 ha         1 8CF       0.120000
     29 H3           1.3470     4.1020    -1.1540 ha         1 8CF       0.126000
     30 H4          -0.8430     0.4620     1.4320 ha         1 8CF       0.120000
     31 H5          -1.6030     2.7730     1.7140 ha         1 8CF       0.126000
     32 H6          -1.5210    -0.0470    -1.4210 ha         1 8CF       0.142000
     33 H7          -3.6280    -3.6000     1.3560 ha         1 8CF       0.135000
     34 H8          -0.1350    -3.6460     0.9170 ho         1 8CF       0.514000
     35 H9          -5.5490    -2.7100     0.7910 ho         1 8CF       0.474000
     36 H10         -1.7500     6.4380     1.2340 h1         1 8CF       0.043033
     37 H11         -2.5620     4.8750     1.0060 h1         1 8CF       0.043033
     38 H12         -1.3890     5.0900     2.3330 h1         1 8CF       0.043033
     39 H13          6.4980     0.4350    -1.6570 hc         1 8CF       0.063200
     40 H14          5.3880     1.4980    -0.7340 hc         1 8CF       0.063200
     41 H15          6.1630     0.4290     1.3990 hc         1 8CF       0.048033
     42 H16          7.2790    -0.6040     0.4760 hc         1 8CF       0.048033
     43 H17          7.5160     1.1570     0.5060 hc         1 8CF       0.048033
     44 O22         -0.5500     4.9340     0.4180 os         1 8CF      -0.340100
@<TRIPOS>BOND
     1     1     2 2   
     2     1     5 1   
     3     1    11 1   
     4     2     3 1   
     5     2    12 1   
     6     3     4 1   
     7     3    10 2   
     8     4    14 ar  
     9     4    18 ar  
    10     5    23 1   
    11     5    27 1   
    12     6     7 ar  
    13     6    12 ar  
    14     6    28 1   
    15     7     8 ar  
    16     7    29 1   
    17     8    13 ar  
    18     8    44 1   
    19     9    12 ar  
    20     9    13 ar  
    21     9    30 1   
    22    10    11 1   
    23    13    31 1   
    24    14    15 ar  
    25    14    32 1   
    26    15    16 ar  
    27    15    21 1   
    28    16    17 ar  
    29    16    20 1   
    30    17    18 ar  
    31    17    33 1   
    32    18    19 1   
    33    19    34 1   
    34    20    35 1   
    35    22    36 1   
    36    22    37 1   
    37    22    38 1   
    38    22    44 1   
    39    23    24 1   
    40    23    25 2   
    41    24    26 1   
    42    24    39 1   
    43    24    40 1   
    44    26    41 1   
    45    26    42 1   
    46    26    43 1   
@<TRIPOS>SUBSTRUCTURE
     1 8CF         1 TEMP              0 ****  ****    0 ROOT
