@<TRIPOS>MOLECULE
8CG
   46    48     1     0     0
SMALL
abcg2


@<TRIPOS>ATOM
      1 N3         -27.1870   -39.2950     4.6920 nt         1 8CG      -0.595000
      2 C4         -25.7340   -38.6520    13.6900 c5         1 8CG       0.114700
      3 N2         -22.8060   -38.4570    10.6890 nb         1 8CG      -0.762000
      4 C7         -24.5280   -38.5240    12.7730 c3         1 8CG       0.151600
      5 C6         -27.6810   -39.8710    12.8470 c5         1 8CG       0.113300
      6 C9         -24.5980   -38.8530     9.1160 ca         1 8CG      -0.047000
      7 C13        -24.1800   -38.9310     6.7370 ca         1 8CG      -0.030000
      8 C8         -24.0650   -38.6870    10.4360 ca         1 8CG       0.592300
      9 C18        -28.6890   -39.4030     8.3640 c3         1 8CG       0.149900
     10 C16        -21.9370   -38.3760     9.6390 ca         1 8CG       0.349900
     11 C3         -26.4480   -40.0320    13.7370 c5         1 8CG      -0.090700
     12 N1         -26.8140   -37.7610    13.2800 ns         1 8CG      -0.499900
     13 C5         -27.8700   -38.3570    12.7020 c          1 8CG       0.542000
     14 O1         -28.8170   -37.8120    12.1500 o          1 8CG      -0.537000
     15 F1         -27.5140   -40.4080    11.5590 f          1 8CG      -0.248000
     16 O2         -24.9600   -38.7790    11.4340 os         1 8CG      -0.466300
     17 C10        -25.9650   -39.0720     8.8700 ca         1 8CG      -0.167000
     18 C11        -26.4270   -39.2060     7.5780 ca         1 8CG       0.156100
     19 C12        -25.5160   -39.1430     6.4760 ca         1 8CG      -0.146600
     20 C14        -23.6820   -38.7680     8.0440 ca         1 8CG      -0.036000
     21 C15        -22.3140   -38.5280     8.3370 ca         1 8CG      -0.158000
     22 C17        -25.8840   -39.3010     5.0190 c          1 8CG       0.614700
     23 O3         -25.0020   -39.3940     4.1630 o          1 8CG      -0.626100
     24 H16        -27.4390   -39.3980     3.7230 hn         1 8CG       0.327500
     25 H17        -27.9010   -39.2650     5.4010 hn         1 8CG       0.327500
     26 H2         -25.3910   -38.3830    14.6910 h1         1 8CG       0.071700
     27 H10        -23.7480   -39.2290    13.0620 h1         1 8CG       0.060700
     28 H11        -24.1110   -37.5160    12.8340 h1         1 8CG       0.060700
     29 H3         -28.5740   -40.3370    13.2580 h1         1 8CG       0.083700
     30 H13        -23.4980   -38.8870     5.9000 ha         1 8CG       0.149000
     31 H20        -29.6620   -39.4950     7.8880 h1         1 8CG       0.053367
     32 H19        -28.5190   -40.2460     9.0340 h1         1 8CG       0.053367
     33 H18        -28.6370   -38.4680     8.9250 h1         1 8CG       0.053367
     34 H15        -20.9040   -38.1820     9.9020 h4         1 8CG       0.021100
     35 H6         -25.6550   -43.4210    13.5490 hc         1 8CG       0.037700
     36 H5         -26.6400   -42.6180    14.7750 hc         1 8CG       0.037700
     37 H4         -27.1910   -42.6780    13.0980 hc         1 8CG       0.037700
     38 H1         -26.8400   -40.1300    14.7520 hc         1 8CG       0.062700
     39 H9         -26.6940   -36.7580    13.2420 hn         1 8CG       0.332500
     40 H12        -26.6350   -39.1420     9.7090 ha         1 8CG       0.149000
     41 H14        -21.5900   -38.4590     7.5350 ha         1 8CG       0.130000
     42 O4         -27.7380   -39.4080     7.2950 os         1 8CG      -0.378100
     43 C2         -25.5810   -41.2560    13.4560 c3         1 8CG      -0.065400
     44 H7         -25.2300   -41.2340    12.4240 hc         1 8CG       0.054200
     45 C1         -26.3110   -42.5680    13.7340 c3         1 8CG      -0.091100
     46 H8         -24.6920   -41.1960    14.0900 hc         1 8CG       0.054200
@<TRIPOS>BOND
     1     1    22 1   
     2     1    24 1   
     3     1    25 1   
     4     2     4 1   
     5     2    11 1   
     6     2    12 1   
     7     2    26 1   
     8     3     8 ar  
     9     3    10 ar  
    10     4    16 1   
    11     4    27 1   
    12     4    28 1   
    13     5    11 1   
    14     5    13 1   
    15     5    15 1   
    16     5    29 1   
    17     6     8 ar  
    18     6    17 ar  
    19     6    20 ar  
    20     7    19 ar  
    21     7    20 ar  
    22     7    30 1   
    23     8    16 1   
    24     9    31 1   
    25     9    32 1   
    26     9    33 1   
    27     9    42 1   
    28    10    21 ar  
    29    10    34 1   
    30    11    38 1   
    31    11    43 1   
    32    12    13 1   
    33    12    39 1   
    34    13    14 2   
    35    17    18 ar  
    36    17    40 1   
    37    18    19 ar  
    38    18    42 1   
    39    19    22 1   
    40    20    21 ar  
    41    21    41 1   
    42    22    23 2   
    43    35    45 1   
    44    36    45 1   
    45    37    45 1   
    46    43    44 1   
    47    43    45 1   
    48    43    46 1   
@<TRIPOS>SUBSTRUCTURE
     1 8CG         1 TEMP              0 ****  ****    0 ROOT
