@<TRIPOS>MOLECULE
8CG
   46    48     1     0     0
SMALL
No Charge or Current Charge


@<TRIPOS>ATOM
      1 N3         -27.2190   -39.2610     4.5630 nt         1 8CG      -0.595000
      2 C4         -25.7990   -38.6470    13.7260 c5         1 8CG       0.114700
      3 N2         -22.7700   -38.5660    10.6350 nb         1 8CG      -0.762000
      4 C7         -24.5700   -38.5170    12.7710 c3         1 8CG       0.151600
      5 C6         -27.5880   -40.0420    12.7700 c5         1 8CG       0.113300
      6 C9         -24.5920   -38.8050     9.0370 ca         1 8CG      -0.047000
      7 C13        -24.1400   -38.8890     6.6430 ca         1 8CG      -0.030000
      8 C8         -24.0910   -38.6950    10.3610 ca         1 8CG       0.592300
      9 C18        -28.7930   -39.2010     8.2310 c3         1 8CG       0.149900
     10 C16        -21.9070   -38.5430     9.5950 ca         1 8CG       0.349900
     11 C3         -26.4650   -40.0670    13.8550 c5         1 8CG      -0.090700
     12 N1         -26.9470   -37.8480    13.2800 ns         1 8CG      -0.499900
     13 C5         -27.8530   -38.5450    12.5230 c          1 8CG       0.542000
     14 O1         -28.7270   -38.0140    11.8530 o          1 8CG      -0.537000
     15 F1         -27.1940   -40.6530    11.5700 f          1 8CG      -0.248000
     16 O2         -24.9850   -38.7320    11.4080 os         1 8CG      -0.466300
     17 C10        -25.9700   -38.9320     8.7630 ca         1 8CG      -0.167000
     18 C11        -26.4440   -39.0420     7.4350 ca         1 8CG       0.156100
     19 C12        -25.5190   -39.0220     6.3520 ca         1 8CG      -0.146600
     20 C14        -23.6840   -38.7820     7.9670 ca         1 8CG      -0.036000
     21 C15        -22.3160   -38.6480     8.2570 ca         1 8CG      -0.158000
     22 C17        -25.9200   -39.1330     4.8910 c          1 8CG       0.614700
     23 O3         -25.1010   -39.1110     3.9860 o          1 8CG      -0.626100
     24 H16        -27.4840   -39.3340     3.5930 hn         1 8CG       0.327500
     25 H17        -27.9100   -39.2800     5.2990 hn         1 8CG       0.327500
     26 H2         -25.4560   -38.3190    14.7180 h1         1 8CG       0.071700
     27 H10        -23.7980   -39.2380    13.0710 h1         1 8CG       0.060700
     28 H11        -24.1470   -37.5100    12.8830 h1         1 8CG       0.060700
     29 H3         -28.5110   -40.5230    13.1170 h1         1 8CG       0.083700
     30 H13        -23.4110   -38.8690     5.8350 ha         1 8CG       0.149000
     31 H20        -29.7960   -39.3110     7.8000 h1         1 8CG       0.053367
     32 H19        -28.6220   -40.0480     8.9090 h1         1 8CG       0.053367
     33 H18        -28.7770   -38.2730     8.8160 h1         1 8CG       0.053367
     34 H15        -20.8520   -38.4380     9.8440 h4         1 8CG       0.021100
     35 H6         -25.4530   -43.4520    14.1060 hc         1 8CG       0.037700
     36 H5         -26.6970   -42.6380    15.0770 hc         1 8CG       0.037700
     37 H4         -26.9340   -42.8620    13.3280 hc         1 8CG       0.037700
     38 H1         -26.9570   -40.1030    14.8350 hc         1 8CG       0.062700
     39 H9         -26.9680   -36.8360    13.2330 hn         1 8CG       0.332500
     40 H12        -26.6640   -38.9410     9.5960 ha         1 8CG       0.149000
     41 H14        -21.5730   -38.6250     7.4650 ha         1 8CG       0.130000
     42 O4         -27.8000   -39.1690     7.1860 os         1 8CG      -0.378100
     43 C2         -25.5010   -41.2870    13.8410 c3         1 8CG      -0.065400
     44 H7         -24.9780   -41.3490    12.8780 hc         1 8CG       0.054200
     45 C1         -26.1920   -42.6420    14.1030 c3         1 8CG      -0.091100
     46 H8         -24.7250   -41.1460    14.6030 hc         1 8CG       0.054200
@<TRIPOS>BOND
     1     1    22 1   
     2     1    24 1   
     3     1    25 1   
     4     2     4 1   
     5     2    11 1   
     6     2    12 1   
     7     2    26 1   
     8     3     8 ar  
     9     3    10 ar  
    10     4    16 1   
    11     4    27 1   
    12     4    28 1   
    13     5    11 1   
    14     5    13 1   
    15     5    15 1   
    16     5    29 1   
    17     6     8 ar  
    18     6    17 ar  
    19     6    20 ar  
    20     7    19 ar  
    21     7    20 ar  
    22     7    30 1   
    23     8    16 1   
    24     9    31 1   
    25     9    32 1   
    26     9    33 1   
    27     9    42 1   
    28    10    21 ar  
    29    10    34 1   
    30    11    38 1   
    31    11    43 1   
    32    12    13 1   
    33    12    39 1   
    34    13    14 2   
    35    17    18 ar  
    36    17    40 1   
    37    18    19 ar  
    38    18    42 1   
    39    19    22 1   
    40    20    21 ar  
    41    21    41 1   
    42    22    23 2   
    43    35    45 1   
    44    36    45 1   
    45    37    45 1   
    46    43    44 1   
    47    43    45 1   
    48    43    46 1   
@<TRIPOS>SUBSTRUCTURE
     1 8CG         1 TEMP              0 ****  ****    0 ROOT
