@<TRIPOS>MOLECULE
8CI
   33    34     1     0     0
SMALL
bcc


@<TRIPOS>ATOM
      1 C4         -14.8260    13.8420    -8.7550 ca         1 8CI      -0.207500
      2 C5         -13.6490    14.4470    -9.2090 ca         1 8CI       0.172100
      3 C6         -11.2830    14.6490    -9.0160 c3         1 8CI       0.145400
      4 C11        -10.2180    14.6140    -6.6870 c5         1 8CI      -0.075400
      5 C7         -10.1760    14.0970    -8.1450 c5         1 8CI      -0.069700
      6 C8          -8.7990    14.5280    -8.6970 c5         1 8CI      -0.075400
      7 C9          -7.9700    14.8930    -7.4670 c5         1 8CI      -0.081400
      8 C10         -9.0020    15.5310    -6.5420 c5         1 8CI      -0.081400
      9 C12        -13.7140    15.3430   -10.2750 ca         1 8CI      -0.207500
     10 C13        -14.9340    15.6080   -10.8790 ca         1 8CI      -0.049000
     11 N1         -17.4530    15.7660   -12.2990 nt         1 8CI      -0.673000
     12 C3         -16.0320    14.1240    -9.3600 ca         1 8CI      -0.049000
     13 O1         -18.4740    15.0400   -10.4290 o          1 8CI      -0.608100
     14 C2         -16.1080    15.0010   -10.4440 ca         1 8CI      -0.196600
     15 O2         -12.5220    14.1170    -8.5660 os         1 8CI      -0.321900
     16 H1         -14.7800    13.1490    -7.9240 ha         1 8CI       0.143000
     17 H2         -11.1170    14.3740   -10.0650 h1         1 8CI       0.036700
     18 H3         -11.2950    15.7450    -8.9570 h1         1 8CI       0.036700
     19 H4         -11.1550    15.1190    -6.4450 hc         1 8CI       0.046200
     20 H5         -10.1310    13.7730    -5.9950 hc         1 8CI       0.046200
     21 H6         -10.2490    13.0060    -8.1580 hc         1 8CI       0.064700
     22 H7          -8.3400    13.7530    -9.3120 hc         1 8CI       0.046200
     23 H8          -8.9080    15.4130    -9.3320 hc         1 8CI       0.046200
     24 H9          -7.5620    13.9910    -7.0020 hc         1 8CI       0.044700
     25 H10         -7.1300    15.5490    -7.7010 hc         1 8CI       0.044700
     26 H11         -8.6630    15.6240    -5.5090 hc         1 8CI       0.044700
     27 H12         -9.2410    16.5380    -6.8970 hc         1 8CI       0.044700
     28 H13        -12.8320    15.8460   -10.6460 ha         1 8CI       0.143000
     29 H14        -14.9450    16.3260   -11.6900 ha         1 8CI       0.140500
     30 H15        -18.3350    15.9320   -12.7550 hn         1 8CI       0.311000
     31 H16        -16.6340    15.7970   -12.8800 hn         1 8CI       0.311000
     32 H17        -16.9300    13.6460    -8.9920 ha         1 8CI       0.140500
     33 C1         -17.4440    15.2660   -11.0500 c          1 8CI       0.689700
@<TRIPOS>BOND
     1     1     2 ar  
     2     1    12 ar  
     3     1    16 1   
     4     2     9 ar  
     5     2    15 1   
     6     3     5 1   
     7     3    15 1   
     8     3    17 1   
     9     3    18 1   
    10     4     5 1   
    11     4     8 1   
    12     4    19 1   
    13     4    20 1   
    14     5     6 1   
    15     5    21 1   
    16     6     7 1   
    17     6    22 1   
    18     6    23 1   
    19     7     8 1   
    20     7    24 1   
    21     7    25 1   
    22     8    26 1   
    23     8    27 1   
    24     9    10 ar  
    25     9    28 1   
    26    10    14 ar  
    27    10    29 1   
    28    11    30 1   
    29    11    31 1   
    30    11    33 1   
    31    12    14 ar  
    32    12    32 1   
    33    13    33 2   
    34    14    33 1   
@<TRIPOS>SUBSTRUCTURE
     1 8CI         1 TEMP              0 ****  ****    0 ROOT
