@<TRIPOS>MOLECULE
8CI
   33    34     1     0     0
SMALL
No Charge or Current Charge


@<TRIPOS>ATOM
      1 C4         -14.8510    14.1010    -8.5890 ca         1 8CI      -0.189500
      2 C5         -13.6940    14.5460    -9.2410 ca         1 8CI       0.172100
      3 C6         -11.2430    14.8050    -9.1810 c3         1 8CI       0.168600
      4 C11        -10.1680    15.2330    -6.8390 c5         1 8CI      -0.075400
      5 C7         -10.1080    14.4670    -8.1870 c5         1 8CI      -0.069700
      6 C8          -8.6990    14.9070    -8.6560 c5         1 8CI      -0.075400
      7 C9          -7.8370    14.6210    -7.3940 c5         1 8CI      -0.081400
      8 C10         -8.8060    14.8540    -6.1890 c5         1 8CI      -0.081400
      9 C12        -13.8040    15.1430   -10.5140 ca         1 8CI      -0.189500
     10 C13        -15.0640    15.2890   -11.1210 ca         1 8CI      -0.031000
     11 N1         -17.7010    15.5560   -12.3080 nt         1 8CI      -0.606000
     12 C3         -16.1120    14.2450    -9.1910 ca         1 8CI      -0.031000
     13 O1         -18.6250    14.6010   -10.5360 o          1 8CI      -0.608100
     14 C2         -16.2360    14.8410   -10.4660 ca         1 8CI      -0.196600
     15 O2         -12.4860    14.3770    -8.5990 os         1 8CI      -0.345100
     16 H1         -14.7710    13.6400    -7.6080 ha         1 8CI       0.125000
     17 H2         -11.0590    14.2840   -10.1290 h1         1 8CI       0.036700
     18 H3         -11.2530    15.8870    -9.3700 h1         1 8CI       0.036700
     19 H4         -10.2500    16.3160    -6.9930 hc         1 8CI       0.046200
     20 H5         -11.0190    14.9290    -6.2190 hc         1 8CI       0.046200
     21 H6         -10.1420    13.3820    -8.0260 hc         1 8CI       0.064700
     22 H7          -8.3520    14.3430    -9.5300 hc         1 8CI       0.046200
     23 H8          -8.6740    15.9700    -8.9260 hc         1 8CI       0.046200
     24 H9          -7.4680    13.5880    -7.3970 hc         1 8CI       0.044700
     25 H10         -6.9560    15.2720    -7.3500 hc         1 8CI       0.044700
     26 H11         -8.8980    13.9430    -5.5860 hc         1 8CI       0.044700
     27 H12         -8.4470    15.6430    -5.5170 hc         1 8CI       0.044700
     28 H13        -12.9270    15.4980   -11.0470 ha         1 8CI       0.125000
     29 H14        -15.1110    15.7540   -12.1030 ha         1 8CI       0.122500
     30 H15        -18.6110    15.6560   -12.7330 hn         1 8CI       0.311000
     31 H16        -16.8750    15.8790   -12.7850 hn         1 8CI       0.311000
     32 H17        -16.9940    13.8900    -8.6610 ha         1 8CI       0.122500
     33 C1         -17.6070    14.9830   -11.0890 c          1 8CI       0.622700
@<TRIPOS>BOND
     1     1     2 ar  
     2     1    12 ar  
     3     1    16 1   
     4     2     9 ar  
     5     2    15 1   
     6     3     5 1   
     7     3    15 1   
     8     3    17 1   
     9     3    18 1   
    10     4     5 1   
    11     4     8 1   
    12     4    19 1   
    13     4    20 1   
    14     5     6 1   
    15     5    21 1   
    16     6     7 1   
    17     6    22 1   
    18     6    23 1   
    19     7     8 1   
    20     7    24 1   
    21     7    25 1   
    22     8    26 1   
    23     8    27 1   
    24     9    10 ar  
    25     9    28 1   
    26    10    14 ar  
    27    10    29 1   
    28    11    30 1   
    29    11    31 1   
    30    11    33 1   
    31    12    14 ar  
    32    12    32 1   
    33    13    33 2   
    34    14    33 1   
@<TRIPOS>SUBSTRUCTURE
     1 8CI         1 TEMP              0 ****  ****    0 ROOT
