@<TRIPOS>MOLECULE
8CK
   50    53     1     0     0
SMALL
No Charge or Current Charge


@<TRIPOS>ATOM
      1 C01         99.6630   111.1460    89.3570 ca         1 8CK      -0.066300
      2 C02        100.8070   111.1860    88.3360 c6         1 8CK      -0.042100
      3 C03        100.4860   112.0170    87.0720 c6         1 8CK       0.223800
      4 C05         98.0490   112.1260    87.6030 c6         1 8CK       0.279800
      5 C06         98.3570   111.5650    89.0040 ca         1 8CK      -0.081300
      6 C07         99.9130   110.6510    90.6510 ca         1 8CK      -0.110000
      7 C08         97.3230   111.4810    89.9590 ca         1 8CK      -0.105000
      8 C09         97.5810   110.9890    91.2490 ca         1 8CK      -0.109000
      9 C10         98.8770   110.5750    91.5960 ca         1 8CK      -0.107000
     10 C11         98.8040   111.5440    85.2460 ca         1 8CK       0.428900
     11 C12         99.3480   110.4700    84.4990 ca         1 8CK      -0.276300
     12 C13         98.9950   110.4110    83.1310 ca         1 8CK       0.181300
     13 C14         96.0080   114.2070    83.2510 ca         1 8CK       0.300000
     14 C15         97.6680   112.2540    83.3950 ca         1 8CK       0.414900
     15 C16         95.7210   115.2810    82.3870 ca         1 8CK      -0.116000
     16 C17         94.9010   116.3450    82.8120 ca         1 8CK      -0.130000
     17 C18         94.3560   116.3310    84.1050 ca         1 8CK       0.143000
     18 C19         94.6190   115.2590    84.9710 ca         1 8CK      -0.130000
     19 C20         95.4390   114.1970    84.5430 ca         1 8CK      -0.116000
     20 C21         97.8590   113.6690    87.6940 c3         1 8CK      -0.108100
     21 C44         99.5210   109.3400    82.1860 c3         1 8CK      -0.152400
     22 C45        100.2440   109.4030    85.1380 c3         1 8CK      -0.018800
     23 F01         93.5690   117.3490    84.5140 f          1 8CK      -0.182000
     24 N01         99.1000   111.7570    86.6120 nh         1 8CK      -0.778300
     25 N02         98.1560   111.3100    82.5830 nb         1 8CK      -0.274000
     26 N03         97.9570   112.4220    84.6890 nb         1 8CK      -0.316000
     27 N04         96.8200   113.1660    82.7850 nu         1 8CK      -0.935900
     28 H1         101.0430   110.1560    88.0380 hc         1 8CK       0.056700
     29 H2         101.7180   111.5810    88.8040 hc         1 8CK       0.056700
     30 H3         101.2180   111.7830    86.2860 h1         1 8CK       0.051200
     31 H4         100.6100   113.0850    87.3040 h1         1 8CK       0.051200
     32 H5          97.0880   111.6940    87.2810 h1         1 8CK       0.082700
     33 H6         100.9130   110.3200    90.9240 ha         1 8CK       0.110000
     34 H7          96.3150   111.8000    89.7010 ha         1 8CK       0.112000
     35 H8          96.7770   110.9300    91.9800 ha         1 8CK       0.114000
     36 H9          99.0770   110.1920    92.5940 ha         1 8CK       0.113000
     37 H10         96.1420   115.2990    81.3850 ha         1 8CK       0.127500
     38 H11         94.6900   117.1750    82.1430 ha         1 8CK       0.130000
     39 H12         94.1840   115.2480    85.9670 ha         1 8CK       0.130000
     40 H13         95.6110   113.3630    85.2140 ha         1 8CK       0.127500
     41 H14         97.0200   113.9190    88.3530 hc         1 8CK       0.045367
     42 H15         98.7490   114.1610    88.1010 hc         1 8CK       0.045367
     43 H16         97.6460   114.1180    86.7180 hc         1 8CK       0.045367
     44 H17         99.2780   109.5630    81.1390 hc         1 8CK       0.054367
     45 H18        100.6120   109.2540    82.2550 hc         1 8CK       0.054367
     46 H19         99.0870   108.3620    82.4230 hc         1 8CK       0.054367
     47 H20        101.2940   109.7170    85.1410 hc         1 8CK       0.037700
     48 H21         99.9460   109.1990    86.1720 hc         1 8CK       0.037700
     49 H22        100.1880   108.4430    84.6150 hc         1 8CK       0.037700
     50 H23         96.8650   113.1030    81.7690 hn         1 8CK       0.508000
@<TRIPOS>BOND
     1     1     2 1   
     2     1     5 ar  
     3     1     6 ar  
     4     2     3 1   
     5     2    28 1   
     6     2    29 1   
     7     3    24 1   
     8     3    30 1   
     9     3    31 1   
    10     4     5 1   
    11     4    20 1   
    12     4    24 1   
    13     4    32 1   
    14     5     7 ar  
    15     6     9 ar  
    16     6    33 1   
    17     7     8 ar  
    18     7    34 1   
    19     8     9 ar  
    20     8    35 1   
    21     9    36 1   
    22    10    11 ar  
    23    10    24 1   
    24    10    26 ar  
    25    11    12 ar  
    26    11    22 1   
    27    12    21 1   
    28    12    25 ar  
    29    13    15 ar  
    30    13    19 ar  
    31    13    27 1   
    32    14    25 ar  
    33    14    26 ar  
    34    14    27 1   
    35    15    16 ar  
    36    15    37 1   
    37    16    17 ar  
    38    16    38 1   
    39    17    18 ar  
    40    17    23 1   
    41    18    19 ar  
    42    18    39 1   
    43    19    40 1   
    44    20    41 1   
    45    20    42 1   
    46    20    43 1   
    47    21    44 1   
    48    21    45 1   
    49    21    46 1   
    50    22    47 1   
    51    22    48 1   
    52    22    49 1   
    53    27    50 1   
@<TRIPOS>SUBSTRUCTURE
     1 8CK         1 TEMP              0 ****  ****    0 ROOT
