@<TRIPOS>MOLECULE
8CK
   50    53     1     0     0
SMALL
bcc


@<TRIPOS>ATOM
      1 C01         99.3500   111.1210    89.2700 ca         1 8CK      -0.066300
      2 C02        100.4900   110.7450    88.3640 c6         1 8CK      -0.042100
      3 C03        100.4920   111.5800    87.0990 c6         1 8CK       0.223800
      4 C05         98.2210   112.3890    87.3700 c6         1 8CK       0.279800
      5 C06         98.2790   111.8760    88.7930 ca         1 8CK      -0.081300
      6 C07         99.3450   110.6980    90.6000 ca         1 8CK      -0.128000
      7 C08         97.2270   112.1870    89.6540 ca         1 8CK      -0.123000
      8 C09         97.2290   111.7630    90.9720 ca         1 8CK      -0.127000
      9 C10         98.2990   111.0140    91.4500 ca         1 8CK      -0.125000
     10 C11         98.8820   111.4710    85.2100 ca         1 8CK       0.757200
     11 C12         99.5470   110.5290    84.3890 ca         1 8CK      -0.406900
     12 C13         99.2020   110.5740    83.0410 ca         1 8CK       0.509600
     13 C14         95.8530   113.8790    83.5590 ca         1 8CK       0.161600
     14 C15         97.6140   112.1270    83.4370 ca         1 8CK       0.940900
     15 C16         95.4820   115.0000    82.8140 ca         1 8CK      -0.134000
     16 C17         94.7410   116.0250    83.3800 ca         1 8CK      -0.148000
     17 C18         94.3810   115.9310    84.7090 ca         1 8CK       0.107900
     18 C19         94.7110   114.8250    85.4670 ca         1 8CK      -0.148000
     19 C20         95.4340   113.7930    84.8880 ca         1 8CK      -0.134000
     20 C21         98.4460   113.9040    87.3260 c3         1 8CK      -0.108100
     21 C44         99.8780   109.6770    82.0460 c3         1 8CK      -0.152400
     22 C45        100.4750   109.4630    84.8990 c3         1 8CK      -0.018800
     23 F01         93.6950   116.9390    85.2790 f          1 8CK      -0.146900
     24 N01         99.1530   111.6410    86.5380 nh         1 8CK      -0.778300
     25 N02         98.2550   111.3740    82.5500 nb         1 8CK      -0.800000
     26 N03         97.8960   112.2240    84.7200 nb         1 8CK      -0.842000
     27 N04         96.5880   112.8770    82.9240 nu         1 8CK      -0.742300
     28 H1         100.4140   109.6830    88.1090 hc         1 8CK       0.056700
     29 H2         101.4420   110.8680    88.8860 hc         1 8CK       0.056700
     30 H3         101.2000   111.1910    86.3750 h1         1 8CK       0.051200
     31 H4         100.8330   112.5960    87.3290 h1         1 8CK       0.051200
     32 H5          97.2180   112.1910    86.9900 h1         1 8CK       0.082700
     33 H6         100.1800   110.1130    90.9690 ha         1 8CK       0.128000
     34 H7          96.3880   112.7660    89.2820 ha         1 8CK       0.130000
     35 H8          96.4000   112.0100    91.6230 ha         1 8CK       0.132000
     36 H9          98.3140   110.6760    92.4780 ha         1 8CK       0.131000
     37 H10         95.7850   115.0800    81.7760 ha         1 8CK       0.145500
     38 H11         94.4650   116.8910    82.7920 ha         1 8CK       0.148000
     39 H12         94.4010   114.7570    86.5020 ha         1 8CK       0.148000
     40 H13         95.6730   112.9260    85.4820 ha         1 8CK       0.145500
     41 H14         97.6760   114.4160    87.9030 hc         1 8CK       0.045367
     42 H15         99.4120   114.1810    87.7510 hc         1 8CK       0.045367
     43 H16         98.3960   114.2670    86.3010 hc         1 8CK       0.045367
     44 H17         99.6130   109.9700    81.0330 hc         1 8CK       0.054367
     45 H18        100.9630   109.7060    82.1470 hc         1 8CK       0.054367
     46 H19         99.5740   108.6380    82.1850 hc         1 8CK       0.054367
     47 H20        101.5290   109.7490    84.8670 hc         1 8CK       0.037700
     48 H21        100.2380   109.1850    85.9250 hc         1 8CK       0.037700
     49 H22        100.3800   108.5550    84.3040 hc         1 8CK       0.037700
     50 H23         96.5520   112.8720    81.9160 hn         1 8CK       0.452800
@<TRIPOS>BOND
     1     1     2 1   
     2     1     5 ar  
     3     1     6 ar  
     4     2     3 1   
     5     2    28 1   
     6     2    29 1   
     7     3    24 1   
     8     3    30 1   
     9     3    31 1   
    10     4     5 1   
    11     4    20 1   
    12     4    24 1   
    13     4    32 1   
    14     5     7 ar  
    15     6     9 ar  
    16     6    33 1   
    17     7     8 ar  
    18     7    34 1   
    19     8     9 ar  
    20     8    35 1   
    21     9    36 1   
    22    10    11 ar  
    23    10    24 1   
    24    10    26 ar  
    25    11    12 ar  
    26    11    22 1   
    27    12    21 1   
    28    12    25 ar  
    29    13    15 ar  
    30    13    19 ar  
    31    13    27 1   
    32    14    25 ar  
    33    14    26 ar  
    34    14    27 1   
    35    15    16 ar  
    36    15    37 1   
    37    16    17 ar  
    38    16    38 1   
    39    17    18 ar  
    40    17    23 1   
    41    18    19 ar  
    42    18    39 1   
    43    19    40 1   
    44    20    41 1   
    45    20    42 1   
    46    20    43 1   
    47    21    44 1   
    48    21    45 1   
    49    21    46 1   
    50    22    47 1   
    51    22    48 1   
    52    22    49 1   
    53    27    50 1   
@<TRIPOS>SUBSTRUCTURE
     1 8CK         1 TEMP              0 ****  ****    0 ROOT
