@<TRIPOS>MOLECULE
8CL
   12    12     1     0     0
SMALL
No Charge or Current Charge


@<TRIPOS>ATOM
      1 Cl6         -2.2050    -0.0170    -0.0020 cl         1 8CL      -0.208000
      2 C1          -0.4460    -0.0070     0.0200 ca         1 8CL       0.120000
      3 C2           0.2610    -1.2210     0.0190 ca         1 8CL      -0.103000
      4 C3           1.6680    -1.2140     0.0370 ca         1 8CL      -0.102000
      5 C4           2.3640     0.0080     0.0560 ca         1 8CL      -0.109000
      6 C5           1.6540     1.2230     0.0570 ca         1 8CL      -0.102000
      7 C6           0.2480     1.2150     0.0390 ca         1 8CL      -0.103000
      8 H2          -0.2790    -2.1640     0.0050 ha         1 8CL       0.128500
      9 H3           2.2170    -2.1530     0.0360 ha         1 8CL       0.117000
     10 H4           3.4520     0.0150     0.0700 ha         1 8CL       0.117000
     11 H5           2.1930     2.1680     0.0720 ha         1 8CL       0.117000
     12 H6          -0.3030     2.1520     0.0400 ha         1 8CL       0.128500
@<TRIPOS>BOND
     1     1     2 1   
     2     2     3 ar  
     3     2     7 ar  
     4     3     4 ar  
     5     3     8 1   
     6     4     5 ar  
     7     4     9 1   
     8     5     6 ar  
     9     5    10 1   
    10     6     7 ar  
    11     6    11 1   
    12     7    12 1   
@<TRIPOS>SUBSTRUCTURE
     1 8CL         1 TEMP              0 ****  ****    0 ROOT
