@<TRIPOS>MOLECULE
8CL
   12    12     1     0     0
SMALL
bcc


@<TRIPOS>ATOM
      1 CL6         -2.1530    -0.0170    -0.0020 cl         1 8CL      -0.116400
      2 C1          -0.4170    -0.0070     0.0210 ca         1 8CL       0.028400
      3 C2           0.2670    -1.2130     0.0200 ca         1 8CL      -0.121000
      4 C3           1.6560    -1.1960     0.0370 ca         1 8CL      -0.120000
      5 C4           2.3450     0.0080     0.0560 ca         1 8CL      -0.127000
      6 C5           1.6420     1.2060     0.0570 ca         1 8CL      -0.120000
      7 C6           0.2540     1.2070     0.0390 ca         1 8CL      -0.121000
      8 H2          -0.2710    -2.1510     0.0050 ha         1 8CL       0.146500
      9 H3           2.1960    -2.1340     0.0360 ha         1 8CL       0.135000
     10 H4           3.4270     0.0150     0.0690 ha         1 8CL       0.135000
     11 H5           2.1730     2.1480     0.0720 ha         1 8CL       0.135000
     12 H6          -0.2960     2.1380     0.0390 ha         1 8CL       0.146500
@<TRIPOS>BOND
     1     1     2 1   
     2     2     3 ar  
     3     2     7 ar  
     4     3     4 ar  
     5     3     8 1   
     6     4     5 ar  
     7     4     9 1   
     8     5     6 ar  
     9     5    10 1   
    10     6     7 ar  
    11     6    11 1   
    12     7    12 1   
@<TRIPOS>SUBSTRUCTURE
     1 8CL         1 TEMP              0 ****  ****    0 ROOT
