@<TRIPOS>MOLECULE
8CM
   18    19     1     0     0
SMALL
abcg2


@<TRIPOS>ATOM
      1 C5           1.5070    -1.8570     0.0450 ca         1 8CM      -0.094000
      2 C6           2.6830    -1.1390    -0.0040 ca         1 8CM      -0.096000
      3 C7           2.6670     0.2520    -0.0920 ca         1 8CM      -0.115000
      4 C8           1.4690     0.9490    -0.1310 ca         1 8CM       0.138100
      5 C1A          0.2820     0.2140    -0.0800 ca         1 8CM       0.076100
      6 C4A          0.2880    -1.1740     0.0070 ca         1 8CM      -0.115800
      7 C4          -0.9930    -1.8230     0.0530 cc         1 8CM      -0.068200
      8 C3          -2.1310    -1.1090     0.0140 cd         1 8CM      -0.317200
      9 C2          -2.1060     0.3360    -0.0810 c          1 8CM       0.676300
     10 O1          -0.8780     0.9150    -0.1230 os         1 8CM      -0.358200
     11 O2          -3.0650     1.0660    -0.1130 o          1 8CM      -0.482000
     12 O8           1.4910     2.2900    -0.2130 oh         1 8CM      -0.527100
     13 H5           1.5130    -2.9380     0.1130 ha         1 8CM       0.123000
     14 H6           3.6370    -1.6490     0.0290 ha         1 8CM       0.124000
     15 H7           3.5960     0.8050    -0.1300 ha         1 8CM       0.136000
     16 H4          -1.0270    -2.9030     0.1200 ha         1 8CM       0.194000
     17 H3          -3.1010    -1.5860     0.0500 ha         1 8CM       0.216000
     18 HO8          0.5980     2.6520    -0.2710 ho         1 8CM       0.490000
@<TRIPOS>BOND
     1     1     2 ar  
     2     1     6 ar  
     3     1    13 1   
     4     2     3 ar  
     5     2    14 1   
     6     3     4 ar  
     7     3    15 1   
     8     4     5 ar  
     9     4    12 1   
    10     5     6 ar  
    11     5    10 1   
    12     6     7 1   
    13     7     8 2   
    14     7    16 1   
    15     8     9 1   
    16     8    17 1   
    17     9    10 1   
    18     9    11 2   
    19    12    18 1   
@<TRIPOS>SUBSTRUCTURE
     1 8CM         1 TEMP              0 ****  ****    0 ROOT
