@<TRIPOS>MOLECULE
8CM
   18    19     1     0     0
SMALL
No Charge or Current Charge


@<TRIPOS>ATOM
      1 C5           1.4970    -1.8450     0.0460 ca         1 8CM      -0.094000
      2 C6           2.7160    -1.1450    -0.0040 ca         1 8CM      -0.096000
      3 C7           2.7210     0.2580    -0.0950 ca         1 8CM      -0.115000
      4 C8           1.5070     0.9610    -0.1360 ca         1 8CM       0.138100
      5 C1A          0.2840     0.2590    -0.0860 ca         1 8CM       0.076100
      6 C4A          0.2740    -1.1470     0.0060 ca         1 8CM      -0.115800
      7 C4          -0.9880    -1.8750     0.0580 cc         1 8CM      -0.068200
      8 C3          -2.1360    -1.1100     0.0130 cd         1 8CM      -0.317200
      9 C2          -2.1340     0.3620    -0.0830 c          1 8CM       0.676300
     10 O1          -0.9020     0.9590    -0.1260 os         1 8CM      -0.358200
     11 O2          -3.1660     1.0160    -0.1210 o          1 8CM      -0.482000
     12 O8           1.5130     2.3250    -0.2250 oh         1 8CM      -0.527100
     13 H5           1.5050    -2.9310     0.1170 ha         1 8CM       0.123000
     14 H6           3.6570    -1.6910     0.0280 ha         1 8CM       0.124000
     15 H7           3.6640     0.7990    -0.1350 ha         1 8CM       0.136000
     16 H4          -1.0360    -2.9600     0.1290 ha         1 8CM       0.194000
     17 H3          -3.1240    -1.5540     0.0460 ha         1 8CM       0.216000
     18 HO8          0.5750     2.6170    -0.2400 ho         1 8CM       0.490000
@<TRIPOS>BOND
     1     1     2 ar  
     2     1     6 ar  
     3     1    13 1   
     4     2     3 ar  
     5     2    14 1   
     6     3     4 ar  
     7     3    15 1   
     8     4     5 ar  
     9     4    12 1   
    10     5     6 ar  
    11     5    10 1   
    12     6     7 1   
    13     7     8 2   
    14     7    16 1   
    15     8     9 1   
    16     8    17 1   
    17     9    10 1   
    18     9    11 2   
    19    12    18 1   
@<TRIPOS>SUBSTRUCTURE
     1 8CM         1 TEMP              0 ****  ****    0 ROOT
