@<TRIPOS>MOLECULE
8CN
   30    30     1     0     0
SMALL
bcc


@<TRIPOS>ATOM
      1 C10          0.6810     3.8310    -6.5090 c6         1 8CN      -0.085400
      2 C01          1.5720     4.6070   -12.4320 c3         1 8CN      -0.080100
      3 C02          0.8890     3.8970   -11.2770 c3         1 8CN       0.094500
      4 N03          1.4440     2.5500   -11.1430 n8         1 8CN      -0.881800
      5 C04          1.1410     4.6270    -9.9530 c          1 8CN       0.681100
      6 O05          2.0500     5.4430    -9.8630 o          1 8CN      -0.594100
      7 N06          0.3650     4.3000    -8.8930 n          1 8CN      -0.481800
      8 C07         -0.8210     3.4550    -8.9440 c6         1 8CN       0.106000
      9 C08         -0.7670     2.3530    -7.8960 c6         1 8CN      -0.092400
     10 C09         -0.5530     2.9380    -6.5080 c6         1 8CN      -0.072400
     11 C11          0.6310     4.9130    -7.5880 c6         1 8CN       0.104700
     12 C12         -0.3670     6.0250    -7.2760 c3         1 8CN      -0.105100
     13 H1           1.5670     3.2110    -6.6800 hc         1 8CN       0.050200
     14 H2           0.8160     4.3100    -5.5370 hc         1 8CN       0.050200
     15 H4           2.6530     4.6420   -12.3000 hc         1 8CN       0.047033
     16 H5           1.3600     4.0750   -13.3610 hc         1 8CN       0.047033
     17 H6          -0.1870     3.9000   -11.4960 h1         1 8CN       0.021700
     18 H7           0.9280     2.0080   -10.4610 hn         1 8CN       0.341800
     19 H8           1.3280     2.0610   -12.0230 hn         1 8CN       0.341800
     20 H10         -1.7100     4.0730    -8.7770 h1         1 8CN       0.039200
     21 H11         -0.9390     3.0210    -9.9330 h1         1 8CN       0.039200
     22 H12         -1.6960     1.7810    -7.9420 hc         1 8CN       0.046700
     23 H13          0.0470     1.6620    -8.1370 hc         1 8CN       0.046700
     24 H14         -1.4370     3.5070    -6.2060 hc         1 8CN       0.042200
     25 H15         -0.4350     2.1400    -5.7720 hc         1 8CN       0.042200
     26 H16          1.6190     5.3660    -7.6490 h1         1 8CN       0.086700
     27 H17         -0.1030     6.4990    -6.3300 hc         1 8CN       0.039033
     28 H18         -0.3480     6.7920    -8.0510 hc         1 8CN       0.039033
     29 H19         -1.3910     5.6640    -7.1860 hc         1 8CN       0.039033
     30 H3           1.2040     5.6250   -12.5470 hc         1 8CN       0.047033
@<TRIPOS>BOND
     1     1    10 1   
     2     1    11 1   
     3     1    13 1   
     4     1    14 1   
     5     2     3 1   
     6     2    15 1   
     7     2    16 1   
     8     2    30 1   
     9     3     4 1   
    10     3     5 1   
    11     3    17 1   
    12     4    18 1   
    13     4    19 1   
    14     5     6 2   
    15     5     7 1   
    16     7     8 1   
    17     7    11 1   
    18     8     9 1   
    19     8    20 1   
    20     8    21 1   
    21     9    10 1   
    22     9    22 1   
    23     9    23 1   
    24    10    24 1   
    25    10    25 1   
    26    11    12 1   
    27    11    26 1   
    28    12    27 1   
    29    12    28 1   
    30    12    29 1   
@<TRIPOS>SUBSTRUCTURE
     1 8CN         1 TEMP              0 ****  ****    0 ROOT
