@<TRIPOS>MOLECULE
8CN
   30    30     1     0     0
SMALL
No Charge or Current Charge


@<TRIPOS>ATOM
      1 C10          0.5900     3.8340    -6.3120 c6         1 8CN      -0.085400
      2 C01          1.4800     4.7590   -12.5680 c3         1 8CN      -0.080100
      3 C02          0.9650     3.9170   -11.3760 c3         1 8CN       0.094500
      4 N03          1.5470     2.5360   -11.4840 n8         1 8CN      -0.992200
      5 C04          1.1840     4.6490    -9.9840 c          1 8CN       0.614100
      6 O05          1.9470     5.6080    -9.8890 o          1 8CN      -0.594100
      7 N06          0.5300     4.1450    -8.8250 n          1 8CN      -0.414800
      8 C07         -0.6760     3.2610    -8.9120 c6         1 8CN       0.106000
      9 C08         -0.8290     2.2960    -7.7110 c6         1 8CN      -0.092400
     10 C09         -0.7270     3.0310    -6.3620 c6         1 8CN      -0.072400
     11 C11          0.7230     4.8220    -7.5030 c6         1 8CN       0.104700
     12 C12         -0.2460     6.0290    -7.3390 c3         1 8CN      -0.105100
     13 H1           1.4380     3.1360    -6.3320 hc         1 8CN       0.050200
     14 H2           0.6650     4.3750    -5.3590 hc         1 8CN       0.050200
     15 H4           2.5670     4.8950   -12.5130 hc         1 8CN       0.047033
     16 H5           1.2420     4.2740   -13.5220 hc         1 8CN       0.047033
     17 H6          -0.1200     3.8200   -11.5130 h1         1 8CN       0.021700
     18 H7           1.1270     1.9290   -10.7700 hn         1 8CN       0.397000
     19 H8           1.2540     2.1100   -12.3710 hn         1 8CN       0.397000
     20 H10         -1.5700     3.8980    -8.9760 h1         1 8CN       0.039200
     21 H11         -0.6550     2.6490    -9.8210 h1         1 8CN       0.039200
     22 H12         -1.7890     1.7670    -7.7790 hc         1 8CN       0.046700
     23 H13         -0.0460     1.5270    -7.7660 hc         1 8CN       0.046700
     24 H14         -1.5910     3.6950    -6.2230 hc         1 8CN       0.042200
     25 H15         -0.7550     2.3060    -5.5370 hc         1 8CN       0.042200
     26 H16          1.7450     5.2280    -7.4580 h1         1 8CN       0.086700
     27 H17         -0.0870     6.5350    -6.3790 hc         1 8CN       0.039033
     28 H18         -0.0830     6.7700    -8.1300 hc         1 8CN       0.039033
     29 H19         -1.2980     5.7250    -7.3860 hc         1 8CN       0.039033
     30 H3           1.0100     5.7500   -12.5690 hc         1 8CN       0.047033
@<TRIPOS>BOND
     1     1    10 1   
     2     1    11 1   
     3     1    13 1   
     4     1    14 1   
     5     2     3 1   
     6     2    15 1   
     7     2    16 1   
     8     2    30 1   
     9     3     4 1   
    10     3     5 1   
    11     3    17 1   
    12     4    18 1   
    13     4    19 1   
    14     5     6 2   
    15     5     7 1   
    16     7     8 1   
    17     7    11 1   
    18     8     9 1   
    19     8    20 1   
    20     8    21 1   
    21     9    10 1   
    22     9    22 1   
    23     9    23 1   
    24    10    24 1   
    25    10    25 1   
    26    11    12 1   
    27    11    26 1   
    28    12    27 1   
    29    12    28 1   
    30    12    29 1   
@<TRIPOS>SUBSTRUCTURE
     1 8CN         1 TEMP              0 ****  ****    0 ROOT
