@<TRIPOS>MOLECULE
8CO
   47    49     1     0     0
SMALL
No Charge or Current Charge


@<TRIPOS>ATOM
      1 C10         -1.1630    -2.6320    -0.7330 ca         1 8CO      -0.174000
      2 C13          1.1230    -1.7680     0.6400 ca         1 8CO      -0.067000
      3 C15         -3.6590     0.8750     1.0000 ca         1 8CO      -0.039000
      4 C17         -3.7840     2.6510    -0.6510 ca         1 8CO      -0.212000
      5 C24          4.4450     0.9300    -0.0550 c          1 8CO       0.609100
      6 C28          6.4140     0.1210    -1.4610 c3         1 8CO      -0.086100
      7 N01          0.5170     2.8910    -0.1020 nc         1 8CO      -0.448300
      8 O02          1.9010     2.5160    -0.0730 os         1 8CO      -0.032700
      9 C03          1.9810     1.1450    -0.0510 cc         1 8CO       0.336900
     10 C04          0.7250     0.6090    -0.1160 cd         1 8CO      -0.240000
     11 C05         -0.1350     1.7410    -0.0820 cd         1 8CO       0.410500
     12 C06         -1.6070     1.7490    -0.0080 ca         1 8CO      -0.290500
     13 C07          0.3500    -0.8250    -0.0730 ca         1 8CO      -0.051000
     14 C09         -0.7970    -1.2760    -0.7590 ca         1 8CO      -0.067000
     15 C11         -0.3930    -3.5640    -0.0230 ca         1 8CO       0.148100
     16 C12          0.7560    -3.1260     0.6680 ca         1 8CO      -0.174000
     17 C14         -2.2580     0.8800     0.8960 ca         1 8CO       0.014000
     18 C16         -4.4230     1.7580     0.2170 ca         1 8CO       0.215100
     19 C18         -2.3880     2.6590    -0.7530 ca         1 8CO       0.239100
     20 O19         -1.8020     3.5560    -1.5900 oh         1 8CO      -0.532100
     21 O20         -5.7840     1.7670     0.3050 oh         1 8CO      -0.520100
     22 Cl1         -4.4390    -0.2430     2.1210 cl         1 8CO      -0.204000
     23 O22         -0.8020    -4.8810    -0.0320 os         1 8CO      -0.338100
     24 C23         -0.0820    -5.9130     0.6660 c3         1 8CO       0.147900
     25 C25          5.5550    -0.1330    -0.1980 c3         1 8CO      -0.136700
     26 O26          4.6900     2.1170     0.1000 o          1 8CO      -0.520100
     27 C27          6.4210    -0.2140     1.0820 c3         1 8CO      -0.086100
     28 H1          -2.0470    -2.9640    -1.2710 ha         1 8CO       0.125500
     29 H2           1.9870    -1.4550     1.2180 ha         1 8CO       0.120000
     30 H3          -4.3740     3.3450    -1.2420 ha         1 8CO       0.151000
     31 H4           6.9400     1.0810    -1.3920 hc         1 8CO       0.047367
     32 H5           7.1620    -0.6710    -1.5870 hc         1 8CO       0.047367
     33 H6           5.7850     0.1390    -2.3590 hc         1 8CO       0.047367
     34 H7           3.0960    -0.5640    -0.2430 hn         1 8CO       0.343500
     35 H8          -1.3980    -0.5800    -1.3390 ha         1 8CO       0.120000
     36 H9           1.3690    -3.8180     1.2370 ha         1 8CO       0.125500
     37 H10         -1.6800     0.2020     1.5210 ha         1 8CO       0.140000
     38 H11         -0.8480     3.5830    -1.3480 ho         1 8CO       0.512000
     39 H12         -6.0380     1.0850     0.9640 ho         1 8CO       0.483000
     40 H13          0.9440    -5.9970     0.2860 h1         1 8CO       0.042367
     41 H14         -0.0430    -5.7020     1.7420 h1         1 8CO       0.042367
     42 H15         -0.5760    -6.8820     0.5270 h1         1 8CO       0.042367
     43 H16          5.0770    -1.1120    -0.3260 hc         1 8CO       0.056700
     44 H17          6.9480     0.7320     1.2610 hc         1 8CO       0.047367
     45 H18          5.7970    -0.4300     1.9580 hc         1 8CO       0.047367
     46 H19          7.1700    -1.0110     0.9950 hc         1 8CO       0.047367
     47 N08          3.1630     0.4360    -0.1130 ns         1 8CO      -0.491400
@<TRIPOS>BOND
     1     1    14 ar  
     2     1    15 ar  
     3     1    28 1   
     4     2    13 ar  
     5     2    16 ar  
     6     2    29 1   
     7     3    17 ar  
     8     3    18 ar  
     9     3    22 1   
    10     4    18 ar  
    11     4    19 ar  
    12     4    30 1   
    13     5    25 1   
    14     5    26 2   
    15     5    47 1   
    16     6    25 1   
    17     6    31 1   
    18     6    32 1   
    19     6    33 1   
    20     7     8 1   
    21     7    11 2   
    22     8     9 1   
    23     9    10 2   
    24     9    47 1   
    25    10    11 1   
    26    10    13 1   
    27    11    12 1   
    28    12    17 ar  
    29    12    19 ar  
    30    13    14 ar  
    31    14    35 1   
    32    15    16 ar  
    33    15    23 1   
    34    16    36 1   
    35    17    37 1   
    36    18    21 1   
    37    19    20 1   
    38    20    38 1   
    39    21    39 1   
    40    23    24 1   
    41    24    40 1   
    42    24    41 1   
    43    24    42 1   
    44    25    27 1   
    45    25    43 1   
    46    27    44 1   
    47    27    45 1   
    48    27    46 1   
    49    34    47 1   
@<TRIPOS>SUBSTRUCTURE
     1 8CO         1 TEMP              0 ****  ****    0 ROOT
