@<TRIPOS>MOLECULE
8CO
   47    49     1     0     0
SMALL
abcg2


@<TRIPOS>ATOM
      1 C10         -0.5880    -2.8190    -1.1110 ca         1 8CO      -0.174000
      2 C13          0.7760    -1.8150     1.0750 ca         1 8CO      -0.067000
      3 C15         -3.7460     0.7180     0.5310 ca         1 8CO      -0.039000
      4 C17         -3.6280     2.9590    -0.3100 ca         1 8CO      -0.212000
      5 C24          4.4230     0.9610     0.0830 c          1 8CO       0.609100
      6 C28          5.6970    -0.4090    -1.5460 c3         1 8CO      -0.086100
      7 N01          0.5840     2.7320     0.1500 nc         1 8CO      -0.448300
      8 O02          1.8980     2.3580     0.1250 os         1 8CO      -0.032700
      9 C03          1.9590     1.0360     0.1200 cc         1 8CO       0.336900
     10 C04          0.7090     0.4870     0.1310 cd         1 8CO      -0.240000
     11 C05         -0.1300     1.6350     0.1500 cd         1 8CO       0.410500
     12 C06         -1.5870     1.7320     0.1460 ca         1 8CO      -0.290500
     13 C07          0.3890    -0.9440     0.0630 ca         1 8CO      -0.051000
     14 C09         -0.2960    -1.4730    -1.0360 ca         1 8CO      -0.067000
     15 C11         -0.1890    -3.6860    -0.0880 ca         1 8CO       0.148100
     16 C12          0.5010    -3.1750     1.0080 ca         1 8CO      -0.174000
     17 C14         -2.3720     0.6560     0.5570 ca         1 8CO       0.014000
     18 C16         -4.3970     1.8740     0.0850 ca         1 8CO       0.215100
     19 C18         -2.2390     2.9110    -0.2700 ca         1 8CO       0.239100
     20 O19         -1.5870     4.0140    -0.6480 oh         1 8CO      -0.532100
     21 O20         -5.7250     1.9910     0.0280 oh         1 8CO      -0.520100
     22 CL1         -4.6940    -0.6370     1.0530 cl         1 8CO      -0.204000
     23 O22         -0.5120    -4.9800    -0.2480 os         1 8CO      -0.338100
     24 C23         -0.1360    -5.9010     0.7580 c3         1 8CO       0.147900
     25 C25          5.5340    -0.0590    -0.0610 c3         1 8CO      -0.136700
     26 O26          4.6000     2.1550     0.1580 o          1 8CO      -0.520100
     27 C27          6.8360     0.4590     0.5300 c3         1 8CO      -0.086100
     28 H1          -1.1190    -3.2140    -1.9670 ha         1 8CO       0.125500
     29 H2           1.2900    -1.4300     1.9480 ha         1 8CO       0.120000
     30 H3          -4.1200     3.8640    -0.6440 ha         1 8CO       0.151000
     31 H4           6.0050     0.4670    -2.1190 hc         1 8CO       0.047367
     32 H5           6.4650    -1.1730    -1.6620 hc         1 8CO       0.047367
     33 H6           4.7770    -0.7960    -1.9840 hc         1 8CO       0.047367
     34 H7           3.0980    -0.6100     0.0520 hn         1 8CO       0.343500
     35 H8          -0.6050    -0.8200    -1.8420 ha         1 8CO       0.120000
     36 H9           0.8260    -3.8110     1.8210 ha         1 8CO       0.125500
     37 H10         -1.8990    -0.2470     0.9160 ha         1 8CO       0.140000
     38 H11         -0.6270     3.9090    -0.4970 ho         1 8CO       0.512000
     39 H12         -6.1630     1.1900     0.3440 ho         1 8CO       0.483000
     40 H13          0.9490    -5.9530     0.8780 h1         1 8CO       0.042367
     41 H14         -0.5870    -5.6560     1.7230 h1         1 8CO       0.042367
     42 H15         -0.5000    -6.8730     0.4380 h1         1 8CO       0.042367
     43 H16          5.2390    -0.9690     0.4720 hc         1 8CO       0.056700
     44 H17          7.1870     1.3430    -0.0020 hc         1 8CO       0.047367
     45 H18          6.7310     0.7140     1.5850 hc         1 8CO       0.047367
     46 H19          7.6060    -0.3080     0.4480 hc         1 8CO       0.047367
     47 N08          3.1640     0.3990     0.0830 ns         1 8CO      -0.491400
@<TRIPOS>BOND
     1     1    14 ar  
     2     1    15 ar  
     3     1    28 1   
     4     2    13 ar  
     5     2    16 ar  
     6     2    29 1   
     7     3    17 ar  
     8     3    18 ar  
     9     3    22 1   
    10     4    18 ar  
    11     4    19 ar  
    12     4    30 1   
    13     5    25 1   
    14     5    26 2   
    15     5    47 1   
    16     6    25 1   
    17     6    31 1   
    18     6    32 1   
    19     6    33 1   
    20     7     8 1   
    21     7    11 2   
    22     8     9 1   
    23     9    10 2   
    24     9    47 1   
    25    10    11 1   
    26    10    13 1   
    27    11    12 1   
    28    12    17 ar  
    29    12    19 ar  
    30    13    14 ar  
    31    14    35 1   
    32    15    16 ar  
    33    15    23 1   
    34    16    36 1   
    35    17    37 1   
    36    18    21 1   
    37    19    20 1   
    38    20    38 1   
    39    21    39 1   
    40    23    24 1   
    41    24    40 1   
    42    24    41 1   
    43    24    42 1   
    44    25    27 1   
    45    25    43 1   
    46    27    44 1   
    47    27    45 1   
    48    27    46 1   
    49    34    47 1   
@<TRIPOS>SUBSTRUCTURE
     1 8CO         1 TEMP              0 ****  ****    0 ROOT
