@<TRIPOS>MOLECULE
8CP
   41    42     1     0     0
SMALL
No Charge or Current Charge


@<TRIPOS>ATOM
      1 N1           4.7090    -0.5540     1.0550 n          1 8CP      -0.308000
      2 C2           4.3650    -1.3770    -0.0460 c          1 8CP       0.721400
      3 N3           5.0090    -2.5820    -0.1790 nc         1 8CP      -0.791100
      4 C4           5.9100    -2.9350     0.6720 cd         1 8CP       0.754500
      5 C5           6.3130    -2.1630     1.7780 cd         1 8CP      -0.513600
      6 C6           5.6920    -0.9500     1.9570 cc         1 8CP      -0.010400
      7 O2           3.5480    -1.0600    -0.8940 o          1 8CP      -0.536000
      8 N4           6.4580    -4.1120     0.4540 nv         1 8CP      -1.064200
      9 C1           4.0100     0.7360     1.2960 c5         1 8CP       0.342700
     10 C7           4.6440     1.8170     0.3630 c5         1 8CP      -0.149400
     11 C3           3.4300     2.2690    -0.4960 c5         1 8CP       0.118300
     12 C8           2.2630     2.0090     0.5020 c5         1 8CP       0.170300
     13 O4           2.6020     0.7020     1.0080 os         1 8CP      -0.384000
     14 O3           3.5470     3.6370    -0.9000 oh         1 8CP      -0.705000
     15 C9           0.8500     2.0140    -0.1350 c3         1 8CP       0.237600
     16 O5          -0.1290     2.0320     0.9120 os         1 8CP      -0.551400
     17 PA          -1.6850     2.1990     0.5260 p5         1 8CP       1.459800
     18 O1A         -2.4500     2.5190     1.7690 o          1 8CP      -0.880000
     19 O2A         -1.8440     3.2530    -0.5210 o          1 8CP      -0.880000
     20 O3A         -1.9030     0.7330    -0.0200 os         1 8CP      -0.696800
     21 PB          -3.4130     0.2910    -0.0190 p5         1 8CP       1.439700
     22 O1B         -3.8730    -0.2680     1.2860 o          1 8CP      -0.888000
     23 O2B         -4.3370     1.2410    -0.6910 o          1 8CP      -0.888000
     24 PG          -4.0870    -2.1410    -1.1950 p5         1 8CP       1.281800
     25 O1G         -3.5720    -3.1080    -0.1920 o          1 8CP      -0.925500
     26 O2G         -3.8580    -2.6560    -2.5670 o          1 8CP      -0.925500
     27 O3G         -5.5240    -1.8210    -1.0180 o          1 8CP      -0.925500
     28 N3B         -3.2260    -0.8080    -1.1500 n7         1 8CP      -0.931600
     29 H1           7.0810    -2.5120     2.4580 ha         1 8CP       0.170000
     30 H2           5.8840    -0.2360     2.7550 h4         1 8CP       0.181000
     31 H3           5.9270    -4.6940    -0.1790 hn         1 8CP       0.477500
     32 H4           6.8510    -4.5740     1.2630 hn         1 8CP       0.477500
     33 H5           4.1620     1.0020     2.3490 h2         1 8CP       0.024700
     34 H6           5.0480     2.6400     0.9640 hc         1 8CP       0.033700
     35 H7           5.4660     1.4380    -0.2550 hc         1 8CP       0.033700
     36 H8           3.3150     1.6150    -1.3740 h1         1 8CP       0.074700
     37 H9           2.2880     2.7340     1.3280 h1         1 8CP       0.062700
     38 H10          4.3690     3.7100    -1.4370 ho         1 8CP       0.469000
     39 H11          0.7560     2.9080    -0.7650 h1         1 8CP       0.016700
     40 H12          0.7320     1.1290    -0.7740 h1         1 8CP       0.016700
     41 H17         -3.8490    -0.2530    -1.7110 hn         1 8CP       0.394000
@<TRIPOS>BOND
     1     1     2 1   
     2     1     6 1   
     3     1     9 1   
     4     2     3 1   
     5     2     7 2   
     6     3     4 2   
     7     4     5 1   
     8     4     8 1   
     9     5     6 2   
    10     5    29 1   
    11     6    30 1   
    12     8    31 1   
    13     8    32 1   
    14     9    10 1   
    15     9    13 1   
    16     9    33 1   
    17    10    11 1   
    18    10    34 1   
    19    10    35 1   
    20    11    12 1   
    21    11    14 1   
    22    11    36 1   
    23    12    13 1   
    24    12    15 1   
    25    12    37 1   
    26    14    38 1   
    27    15    16 1   
    28    15    39 1   
    29    15    40 1   
    30    16    17 1   
    31    17    18 1   
    32    17    19 1   
    33    17    20 1   
    34    20    21 1   
    35    21    22 1   
    36    21    23 1   
    37    21    28 1   
    38    24    25 1   
    39    24    26 1   
    40    24    27 1   
    41    24    28 1   
    42    28    41 1   
@<TRIPOS>SUBSTRUCTURE
     1 8CP         1 TEMP              0 ****  ****    0 ROOT
