@<TRIPOS>MOLECULE
8CP
   41    42     1     0     0
SMALL
abcg2


@<TRIPOS>ATOM
      1 N1           4.7030    -0.4830     0.8550 n          1 8CP      -0.308000
      2 C2           4.8160    -0.6370    -0.5370 c          1 8CP       0.721400
      3 N3           5.3260    -1.7930    -1.0110 nc         1 8CP      -0.791100
      4 C4           5.7090    -2.7560    -0.1970 cd         1 8CP       0.754500
      5 C5           5.6040    -2.6370     1.2220 cd         1 8CP      -0.513600
      6 C6           5.0870    -1.4820     1.6850 cc         1 8CP      -0.010400
      7 O2           4.4580     0.2710    -1.2730 o          1 8CP      -0.536000
      8 N4           6.2060    -3.8730    -0.7280 nv         1 8CP      -1.064200
      9 C1           4.1200     0.7250     1.4300 c5         1 8CP       0.342700
     10 C7           4.7830     2.0500     1.0420 c5         1 8CP      -0.149400
     11 C3           3.7240     2.7990     0.2330 c5         1 8CP       0.118300
     12 C8           2.4240     2.1180     0.6650 c5         1 8CP       0.170300
     13 O4           2.7710     0.8060     1.0700 os         1 8CP      -0.384000
     14 O3           3.6320     4.1750     0.5130 oh         1 8CP      -0.705000
     15 C9           1.3990     2.0640    -0.4400 c3         1 8CP       0.237600
     16 O5           0.2100     1.4820     0.0420 os         1 8CP      -0.551400
     17 PA          -1.1310     1.5930    -0.9290 p5         1 8CP       1.459800
     18 O1A         -1.7410     2.9500    -0.7450 o          1 8CP      -0.880000
     19 O2A         -0.7510     1.1310    -2.3050 o          1 8CP      -0.880000
     20 O3A         -1.9460     0.4520    -0.1160 os         1 8CP      -0.696800
     21 PB          -3.6140     0.2250    -0.2200 p5         1 8CP       1.439700
     22 O1B         -4.2270     0.8920     0.9770 o          1 8CP      -0.888000
     23 O2B         -4.0100     0.6700    -1.6050 o          1 8CP      -0.888000
     24 PG          -5.0390    -2.3020     0.6430 p5         1 8CP       1.281800
     25 O1G         -4.9120    -2.1880     2.1590 o          1 8CP      -0.925500
     26 O2G         -4.8080    -3.7160     0.1020 o          1 8CP      -0.925500
     27 O3G         -6.2810    -1.6150     0.0710 o          1 8CP      -0.925500
     28 N3B         -3.6310    -1.4380    -0.0190 n7         1 8CP      -0.931600
     29 H1           5.9100    -3.4250     1.8940 ha         1 8CP       0.170000
     30 H2           4.9590    -1.3020     2.7440 h4         1 8CP       0.181000
     31 H3           6.2580    -3.9790    -1.7270 hn         1 8CP       0.477500
     32 H4           6.4970    -4.6440    -0.1540 hn         1 8CP       0.477500
     33 H5           4.2080     0.5790     2.5110 h2         1 8CP       0.024700
     34 H6           5.0000     2.6100     1.9530 hc         1 8CP       0.033700
     35 H7           5.7230     1.9170     0.5090 hc         1 8CP       0.033700
     36 H8           3.8910     2.6340    -0.8350 h1         1 8CP       0.074700
     37 H9           2.0120     2.6730     1.5220 h1         1 8CP       0.062700
     38 H10          4.3580     4.6210     0.0690 ho         1 8CP       0.469000
     39 H11          1.2350     3.0930    -0.7880 h1         1 8CP       0.016700
     40 H12          1.8080     1.4950    -1.2820 h1         1 8CP       0.016700
     41 H17         -3.2610    -1.9290    -0.8240 hn         1 8CP       0.394000
@<TRIPOS>BOND
     1     1     2 1   
     2     1     6 1   
     3     1     9 1   
     4     2     3 1   
     5     2     7 2   
     6     3     4 2   
     7     4     5 1   
     8     4     8 1   
     9     5     6 2   
    10     5    29 1   
    11     6    30 1   
    12     8    31 1   
    13     8    32 1   
    14     9    10 1   
    15     9    13 1   
    16     9    33 1   
    17    10    11 1   
    18    10    34 1   
    19    10    35 1   
    20    11    12 1   
    21    11    14 1   
    22    11    36 1   
    23    12    13 1   
    24    12    15 1   
    25    12    37 1   
    26    14    38 1   
    27    15    16 1   
    28    15    39 1   
    29    15    40 1   
    30    16    17 1   
    31    17    18 1   
    32    17    19 1   
    33    17    20 1   
    34    20    21 1   
    35    21    22 1   
    36    21    23 1   
    37    21    28 1   
    38    24    25 1   
    39    24    26 1   
    40    24    27 1   
    41    24    28 1   
    42    28    41 1   
@<TRIPOS>SUBSTRUCTURE
     1 8CP         1 TEMP              0 ****  ****    0 ROOT
