@<TRIPOS>MOLECULE
8CR
   50    52     1     0     0
SMALL
No Charge or Current Charge


@<TRIPOS>ATOM
      1 CAW          0.3150    -5.8000    -0.8080 c3         1 8CR       0.147900
      2 OAV         -0.3960    -4.8490     0.0030 os         1 8CR      -0.338100
      3 CAK         -0.1530    -3.4920    -0.0690 ca         1 8CR       0.147100
      4 CAL          0.8050    -2.9350    -0.9420 ca         1 8CR      -0.174500
      5 CAM          1.0080    -1.5440    -0.9710 ca         1 8CR      -0.067000
      6 CAJ         -0.8970    -2.6460     0.7650 ca         1 8CR      -0.174500
      7 CAI         -0.6930    -1.2560     0.7370 ca         1 8CR      -0.067000
      8 CAG          0.2640    -0.6890    -0.1300 ca         1 8CR      -0.050000
      9 CAD          0.4820     0.7670    -0.1440 cc         1 8CR      -0.239000
     10 CAC          1.7310     1.2990    -0.0510 cd         1 8CR       0.335900
     11 NAH          2.9130     0.5930     0.0030 ns         1 8CR      -0.490400
     12 CAX          4.1960     1.0820     0.1120 c          1 8CR       0.612100
     13 OAY          4.4290     2.2820     0.1490 o          1 8CR      -0.522100
     14 CAZ          5.3440     0.0200     0.1760 c3         1 8CR      -0.119000
     15 CBB          6.3170     0.2660    -1.0110 c3         1 8CR      -0.086100
     16 CBC          6.1080     0.1960     1.5180 c3         1 8CR      -0.086100
     17 CBA          4.8270    -1.4510     0.0920 c3         1 8CR      -0.086100
     18 OAB          1.6660     2.6450     0.1720 os         1 8CR      -0.030700
     19 NAA          0.2820     3.0070     0.2980 nd         1 8CR      -0.448300
     20 CAE         -0.3790     1.8660     0.1320 cc         1 8CR       0.409500
     21 CAF         -1.8560     1.8460     0.1000 ca         1 8CR      -0.289500
     22 CAN         -2.5320     0.8370    -0.6300 ca         1 8CR       0.014000
     23 CAO         -3.9340     0.8050    -0.6980 ca         1 8CR      -0.038000
     24 Cl1         -4.7260    -0.4850    -1.6050 cl         1 8CR      -0.205000
     25 CAP         -4.6900     1.8000    -0.0580 ca         1 8CR       0.214100
     26 OAT         -6.0530     1.7850    -0.1140 oh         1 8CR      -0.519100
     27 CAQ         -4.0400     2.8290     0.6280 ca         1 8CR      -0.211000
     28 CAR         -2.6420     2.8660     0.6940 ca         1 8CR       0.238100
     29 OAS         -2.0690     3.8950     1.3720 oh         1 8CR      -0.532100
     30 H1          -0.0310    -6.8180    -0.5920 h1         1 8CR       0.042367
     31 H2           0.1490    -5.6040    -1.8750 h1         1 8CR       0.042367
     32 H3           1.3930    -5.7570    -0.6050 h1         1 8CR       0.042367
     33 H4           1.3910    -3.5600    -1.6100 ha         1 8CR       0.125500
     34 H5           1.7240    -1.1320    -1.6780 ha         1 8CR       0.120500
     35 H6          -1.6350    -3.0700     1.4410 ha         1 8CR       0.125500
     36 H7          -1.2680    -0.6220     1.4070 ha         1 8CR       0.120500
     37 H8           2.8520    -0.4130    -0.0220 hn         1 8CR       0.344500
     38 H9           5.7940     0.1670    -1.9700 hc         1 8CR       0.045367
     39 H10          6.7500     1.2730    -0.9650 hc         1 8CR       0.045367
     40 H11          7.1430    -0.4550    -0.9990 hc         1 8CR       0.045367
     41 H12          6.5350     1.2030     1.6010 hc         1 8CR       0.045367
     42 H13          5.4350     0.0440     2.3720 hc         1 8CR       0.045367
     43 H14          6.9300    -0.5250     1.6010 hc         1 8CR       0.045367
     44 H15          5.6640    -2.1580     0.1430 hc         1 8CR       0.045367
     45 H16          4.1500    -1.6870     0.9230 hc         1 8CR       0.045367
     46 H17          4.3020    -1.6370    -0.8530 hc         1 8CR       0.045367
     47 H18         -1.9790     0.0780    -1.1770 ha         1 8CR       0.140000
     48 H19         -6.3150     0.9990    -0.6420 ho         1 8CR       0.483000
     49 H20         -4.6240     3.6080     1.1080 ha         1 8CR       0.151000
     50 H21         -1.1010     3.8430     1.1830 ho         1 8CR       0.512000
@<TRIPOS>BOND
     1     1     2 1   
     2     1    30 1   
     3     1    31 1   
     4     1    32 1   
     5     2     3 1   
     6     3     4 ar  
     7     3     6 ar  
     8     4     5 ar  
     9     4    33 1   
    10     5     8 ar  
    11     5    34 1   
    12     6     7 ar  
    13     6    35 1   
    14     7     8 ar  
    15     7    36 1   
    16     8     9 1   
    17     9    10 2   
    18     9    20 1   
    19    10    11 1   
    20    10    18 1   
    21    11    12 1   
    22    11    37 1   
    23    12    13 2   
    24    12    14 1   
    25    14    15 1   
    26    14    16 1   
    27    14    17 1   
    28    15    38 1   
    29    15    39 1   
    30    15    40 1   
    31    16    41 1   
    32    16    42 1   
    33    16    43 1   
    34    17    44 1   
    35    17    45 1   
    36    17    46 1   
    37    18    19 1   
    38    19    20 2   
    39    20    21 1   
    40    21    22 ar  
    41    21    28 ar  
    42    22    23 ar  
    43    22    47 1   
    44    23    24 1   
    45    23    25 ar  
    46    25    26 1   
    47    25    27 ar  
    48    26    48 1   
    49    27    28 ar  
    50    27    49 1   
    51    28    29 1   
    52    29    50 1   
@<TRIPOS>SUBSTRUCTURE
     1 8CR         1 TEMP              0 ****  ****    0 ROOT
