@<TRIPOS>MOLECULE
8CR
   50    52     1     0     0
SMALL
abcg2


@<TRIPOS>ATOM
      1 CAW         -0.0310    -5.8480    -0.4700 c3         1 8CR       0.147900
      2 OAV         -0.4750    -4.9110     0.4930 os         1 8CR      -0.338100
      3 CAK         -0.1970    -3.6110     0.3020 ca         1 8CR       0.147100
      4 CAL          0.5130    -3.1080    -0.7840 ca         1 8CR      -0.174500
      5 CAM          0.7340    -1.7400    -0.8880 ca         1 8CR      -0.067000
      6 CAJ         -0.6680    -2.7290     1.2810 ca         1 8CR      -0.174500
      7 CAI         -0.4280    -1.3750     1.1710 ca         1 8CR      -0.067000
      8 CAG          0.2730    -0.8540     0.0800 ca         1 8CR      -0.050000
      9 CAD          0.5370     0.5850    -0.0290 cc         1 8CR      -0.239000
     10 CAC          1.7660     1.1800    -0.0380 cd         1 8CR       0.335900
     11 NAH          2.9920     0.5850     0.0360 ns         1 8CR      -0.490400
     12 CAX          4.2270     1.1710    -0.1450 c          1 8CR       0.612100
     13 OAY          4.3370     2.3510    -0.3810 o          1 8CR      -0.522100
     14 CAZ          5.4010     0.2010    -0.0360 c3         1 8CR      -0.119000
     15 CBB          6.7040     0.9740    -0.2200 c3         1 8CR      -0.086100
     16 CBC          5.3940    -0.4690     1.3450 c3         1 8CR      -0.086100
     17 CBA          5.2890    -0.8630    -1.1390 c3         1 8CR      -0.086100
     18 OAB          1.6580     2.4980    -0.0910 os         1 8CR      -0.030700
     19 NAA          0.3320     2.8220    -0.1310 nd         1 8CR      -0.448300
     20 CAE         -0.3430     1.7000    -0.0890 cc         1 8CR       0.409500
     21 CAF         -1.8020     1.7460    -0.0900 ca         1 8CR      -0.289500
     22 CAN         -2.5470     0.6370    -0.4900 ca         1 8CR       0.014000
     23 CAO         -3.9230     0.6520    -0.4660 ca         1 8CR      -0.038000
     24 CL1         -4.8220    -0.7390    -0.9820 cl         1 8CR      -0.205000
     25 CAP         -4.6150     1.7880    -0.0310 ca         1 8CR       0.214100
     26 OAT         -5.9460     1.8590     0.0260 oh         1 8CR      -0.519100
     27 CAQ         -3.8850     2.9050     0.3510 ca         1 8CR      -0.211000
     28 CAR         -2.4960     2.9070     0.3100 ca         1 8CR       0.238100
     29 OAS         -1.8830     4.0370     0.6730 oh         1 8CR      -0.532100
     30 H1          -0.3690    -6.8230    -0.1300 h1         1 8CR       0.042367
     31 H2          -0.4570    -5.6510    -1.4570 h1         1 8CR       0.042367
     32 H3           1.0590    -5.8620    -0.5510 h1         1 8CR       0.042367
     33 H4           0.8920    -3.7540    -1.5630 ha         1 8CR       0.125500
     34 H5           1.2600    -1.3630    -1.7570 ha         1 8CR       0.120500
     35 H6          -1.2140    -3.1180     2.1310 ha         1 8CR       0.125500
     36 H7          -0.7940    -0.7100     1.9440 ha         1 8CR       0.120500
     37 H8           2.9490    -0.4090     0.2140 hn         1 8CR       0.344500
     38 H9           6.7530     1.4580    -1.1960 hc         1 8CR       0.045367
     39 H10          6.8370     1.7390     0.5450 hc         1 8CR       0.045367
     40 H11          7.5450     0.2840    -0.1510 hc         1 8CR       0.045367
     41 H12          5.4350     0.2670     2.1480 hc         1 8CR       0.045367
     42 H13          4.5190    -1.0990     1.5110 hc         1 8CR       0.045367
     43 H14          6.2690    -1.1140     1.4370 hc         1 8CR       0.045367
     44 H15          6.1630    -1.5130    -1.0950 hc         1 8CR       0.045367
     45 H16          4.4120    -1.5040    -1.0340 hc         1 8CR       0.045367
     46 H17          5.2580    -0.4080    -2.1300 hc         1 8CR       0.045367
     47 H18         -2.0410    -0.2520    -0.8390 ha         1 8CR       0.140000
     48 H19         -6.3540     1.0360    -0.2740 ho         1 8CR       0.483000
     49 H20         -4.4100     3.7960     0.6730 ha         1 8CR       0.151000
     50 H21         -0.9210     3.9660     0.5180 ho         1 8CR       0.512000
@<TRIPOS>BOND
     1     1     2 1   
     2     1    30 1   
     3     1    31 1   
     4     1    32 1   
     5     2     3 1   
     6     3     4 ar  
     7     3     6 ar  
     8     4     5 ar  
     9     4    33 1   
    10     5     8 ar  
    11     5    34 1   
    12     6     7 ar  
    13     6    35 1   
    14     7     8 ar  
    15     7    36 1   
    16     8     9 1   
    17     9    10 2   
    18     9    20 1   
    19    10    11 1   
    20    10    18 1   
    21    11    12 1   
    22    11    37 1   
    23    12    13 2   
    24    12    14 1   
    25    14    15 1   
    26    14    16 1   
    27    14    17 1   
    28    15    38 1   
    29    15    39 1   
    30    15    40 1   
    31    16    41 1   
    32    16    42 1   
    33    16    43 1   
    34    17    44 1   
    35    17    45 1   
    36    17    46 1   
    37    18    19 1   
    38    19    20 2   
    39    20    21 1   
    40    21    22 ar  
    41    21    28 ar  
    42    22    23 ar  
    43    22    47 1   
    44    23    24 1   
    45    23    25 ar  
    46    25    26 1   
    47    25    27 ar  
    48    26    48 1   
    49    27    28 ar  
    50    27    49 1   
    51    28    29 1   
    52    29    50 1   
@<TRIPOS>SUBSTRUCTURE
     1 8CR         1 TEMP              0 ****  ****    0 ROOT
