@<TRIPOS>MOLECULE
8CS
   35    38     1     0     0
SMALL
No Charge or Current Charge


@<TRIPOS>ATOM
      1 O4          -7.0940    -1.4080    52.9380 o          1 8CS      -0.555000
      2 C4          -8.0430    -1.3440    53.7070 c          1 8CS       0.585200
      3 C4A         -8.3810    -0.1790    54.5540 cc         1 8CS      -0.180200
      4 N5          -7.5780     0.9700    54.4910 nu         1 8CS      -0.706200
      5 N3          -8.9060    -2.3650    53.8650 ns         1 8CS      -0.432400
      6 C2          -9.9520    -2.3190    54.7010 cc         1 8CS       0.723800
      7 N2         -10.7130    -3.3970    54.7420 nv         1 8CS      -1.032200
      8 N1         -10.3120    -1.3340    55.4770 nd         1 8CS      -0.737300
      9 C4B         -9.4850    -0.2390    55.3890 cd         1 8CS       0.421600
     10 N8          -9.8650     0.7760    56.1900 nu         1 8CS      -0.812200
     11 C7          -9.3250     2.1270    56.0080 c6         1 8CS       0.468500
     12 C6          -7.8850     2.1720    55.3560 c6         1 8CS       0.064500
     13 C3          -7.5950     3.5080    54.5960 c          1 8CS       0.592100
     14 O10         -6.4980     3.6780    54.0650 o          1 8CS      -0.476100
     15 C8          -8.7440     4.5390    54.3610 c6         1 8CS       0.095300
     16 O3          -8.9800     4.7050    52.9310 os         1 8CS      -0.579400
     17 O9         -10.2810     2.8220    55.2070 os         1 8CS      -0.446000
     18 C9         -10.0450     4.2390    55.1690 c6         1 8CS       0.099300
     19 C10        -11.3110     4.9990    54.6600 c6         1 8CS       0.206600
     20 O1         -11.4190     5.0380    53.2220 os         1 8CS      -0.584400
     21 P          -10.1740     5.6480    52.4040 p5         1 8CS       1.380200
     22 O2         -10.3160     5.7490    50.9290 o          1 8CS      -0.495000
     23 O5          -9.8700     7.0230    53.1450 oh         1 8CS      -0.743400
     24 HN3         -8.7240    -3.2020    53.3380 hn         1 8CS       0.331500
     25 H2'1       -11.5780    -3.2480    55.2470 hn         1 8CS       0.494500
     26 H2'2       -10.8030    -3.9320    53.8880 hn         1 8CS       0.494500
     27 H7          -9.2690     2.6220    56.9910 h2         1 8CS       0.052700
     28 H6          -7.1760     2.1740    56.1950 h1         1 8CS       0.065700
     29 H8          -8.3420     5.4900    54.7410 h1         1 8CS       0.062700
     30 H9          -9.8850     4.5740    56.2050 h1         1 8CS       0.056700
     31 H101       -12.2110     4.5180    55.0680 h1         1 8CS       0.068700
     32 H102       -11.3010     6.0280    55.0480 h1         1 8CS       0.068700
     33 HO4         -9.4070     7.4550    52.4050 ho         1 8CS       0.461000
     34 HN5         -6.7750     0.9740    53.8470 hn         1 8CS       0.472000
     35 HN8        -10.8250     0.6900    56.5020 hn         1 8CS       0.513000
@<TRIPOS>BOND
     1     1     2 2   
     2     2     3 1   
     3     2     5 1   
     4     3     4 1   
     5     3     9 2   
     6     4    12 1   
     7     4    34 1   
     8     5     6 1   
     9     5    24 1   
    10     6     7 1   
    11     6     8 2   
    12     7    25 1   
    13     7    26 1   
    14     8     9 1   
    15     9    10 1   
    16    10    11 1   
    17    10    35 1   
    18    11    12 1   
    19    11    17 1   
    20    11    27 1   
    21    12    13 1   
    22    12    28 1   
    23    13    14 2   
    24    13    15 1   
    25    15    16 1   
    26    15    18 1   
    27    15    29 1   
    28    16    21 1   
    29    17    18 1   
    30    18    19 1   
    31    18    30 1   
    32    19    20 1   
    33    19    31 1   
    34    19    32 1   
    35    20    21 1   
    36    21    22 2   
    37    21    23 1   
    38    23    33 1   
@<TRIPOS>SUBSTRUCTURE
     1 8CS         1 TEMP              0 ****  ****    0 ROOT
