@<TRIPOS>MOLECULE
8CS
   35    38     1     0     0
SMALL
abcg2


@<TRIPOS>ATOM
      1 O4          -7.7900    -0.6630    52.2500 o          1 8CS      -0.555000
      2 C4          -8.4990    -0.7860    53.2620 c          1 8CS       0.585200
      3 C4A         -8.7190     0.2010    54.2510 cc         1 8CS      -0.180200
      4 N5          -8.1510     1.4850    54.1030 nu         1 8CS      -0.706200
      5 N3          -9.1710    -1.9910    53.5040 ns         1 8CS      -0.432400
      6 C2          -9.9630    -2.2080    54.5860 cc         1 8CS       0.723800
      7 N2         -10.5110    -3.4410    54.7320 nv         1 8CS      -1.032200
      8 N1         -10.1670    -1.2850    55.4960 nd         1 8CS      -0.737300
      9 C4B         -9.5430    -0.0930    55.3190 cd         1 8CS       0.421600
     10 N8          -9.7510     0.8520    56.2890 nu         1 8CS      -0.812200
     11 C7          -9.2850     2.1790    56.1400 c6         1 8CS       0.468500
     12 C6          -7.9490     2.1850    55.3640 c6         1 8CS       0.064500
     13 C3          -7.5330     3.6240    55.0990 c          1 8CS       0.592100
     14 O10         -6.4090     4.0160    55.2950 o          1 8CS      -0.476100
     15 C8          -8.6280     4.5800    54.6190 c6         1 8CS       0.095300
     16 O3          -8.7560     4.3530    53.1960 os         1 8CS      -0.579400
     17 O9         -10.2630     2.9550    55.4320 os         1 8CS      -0.446000
     18 C9          -9.9370     4.3330    55.3760 c6         1 8CS       0.099300
     19 C10        -11.0960     5.0640    54.7350 c6         1 8CS       0.206600
     20 O1         -11.2460     4.6860    53.3430 os         1 8CS      -0.584400
     21 P          -10.0230     4.7940    52.3460 p5         1 8CS       1.380200
     22 O2         -10.1970     3.9970    51.1310 o          1 8CS      -0.495000
     23 O5          -9.8290     6.3260    51.9760 oh         1 8CS      -0.743400
     24 HN3         -9.0270    -2.7250    52.8230 hn         1 8CS       0.331500
     25 H2'1       -11.2450    -3.5200    55.4170 hn         1 8CS       0.494500
     26 H2'2       -10.5950    -4.0400    53.9250 hn         1 8CS       0.494500
     27 H7          -9.1370     2.6230    57.1290 h2         1 8CS       0.052700
     28 H6          -7.1800     1.7280    55.9990 h1         1 8CS       0.065700
     29 H8          -8.2900     5.6040    54.7830 h1         1 8CS       0.062700
     30 H9          -9.8040     4.7370    56.3890 h1         1 8CS       0.056700
     31 H101       -12.0300     4.7910    55.2180 h1         1 8CS       0.068700
     32 H102       -10.9510     6.1440    54.8080 h1         1 8CS       0.068700
     33 HO4         -9.6590     6.9440    52.7030 ho         1 8CS       0.461000
     34 HN5         -7.3200     1.4600    53.5270 hn         1 8CS       0.472000
     35 HN8        -10.4160     0.6420    57.0170 hn         1 8CS       0.513000
@<TRIPOS>BOND
     1     1     2 2   
     2     2     3 1   
     3     2     5 1   
     4     3     4 1   
     5     3     9 2   
     6     4    12 1   
     7     4    34 1   
     8     5     6 1   
     9     5    24 1   
    10     6     7 1   
    11     6     8 2   
    12     7    25 1   
    13     7    26 1   
    14     8     9 1   
    15     9    10 1   
    16    10    11 1   
    17    10    35 1   
    18    11    12 1   
    19    11    17 1   
    20    11    27 1   
    21    12    13 1   
    22    12    28 1   
    23    13    14 2   
    24    13    15 1   
    25    15    16 1   
    26    15    18 1   
    27    15    29 1   
    28    16    21 1   
    29    17    18 1   
    30    18    19 1   
    31    18    30 1   
    32    19    20 1   
    33    19    31 1   
    34    19    32 1   
    35    20    21 1   
    36    21    22 2   
    37    21    23 1   
    38    23    33 1   
@<TRIPOS>SUBSTRUCTURE
     1 8CS         1 TEMP              0 ****  ****    0 ROOT
