@<TRIPOS>MOLECULE
8CT
   96    97     1     0     0
SMALL
bcc


@<TRIPOS>ATOM
      1 C01          6.5340     1.1150    -1.4870 c3         1 8CT      -0.057900
      2 C02          7.2750    -0.1900    -1.5720 c2         1 8CT      -0.095400
      3 C03          7.2020    -1.1690    -0.6500 ce         1 8CT      -0.081200
      4 C04          8.0100    -2.4670    -0.7480 c6         1 8CT       0.000200
      5 C05          8.5580    -2.6630    -2.1660 c6         1 8CT      -0.067400
      6 C06          9.1780    -1.4010    -2.7300 c6         1 8CT      -0.071400
      7 C07          8.1280    -0.3070    -2.8080 c6         1 8CT      -0.041200
      8 C08          9.1670    -2.4270     0.2600 c3         1 8CT      -0.081100
      9 C09          7.1170    -3.6720    -0.4250 c3         1 8CT      -0.081100
     10 C10          6.3850    -1.0650     0.5650 ce         1 8CT      -0.108000
     11 C11          5.1030    -0.6740     0.6330 cf         1 8CT      -0.139000
     12 C12          4.3120    -0.5930     1.8520 cf         1 8CT      -0.062200
     13 C13          3.0390    -0.1410     1.7570 ce         1 8CT      -0.133000
     14 C14          2.1160     0.0670     2.8470 ce         1 8CT      -0.117000
     15 C15          0.8390     0.4770     2.7350 cf         1 8CT      -0.128000
     16 C16          0.0640     0.6620     1.4960 cf         1 8CT      -0.068200
     17 C17         -0.5950     1.8110     1.2400 ce         1 8CT      -0.135000
     18 C18         -0.5400     2.9950     2.0630 ce         1 8CT      -0.119000
     19 C19         -1.2580     4.1290     1.8900 cf         1 8CT      -0.123000
     20 C20         -2.2170     4.3610     0.8420 cf         1 8CT      -0.128000
     21 C21         -3.0140     5.4460     0.7000 ce         1 8CT      -0.070200
     22 C22         -2.9700     6.6510     1.5950 c3         1 8CT      -0.053900
     23 C23         -3.9840     5.5210    -0.3880 ce         1 8CT      -0.128000
     24 C24         -4.7290     4.5210    -0.9070 cf         1 8CT      -0.118000
     25 C25         -4.8160     3.1720    -0.4040 cf         1 8CT      -0.138000
     26 C26         -5.3500     2.0990    -1.0320 ce         1 8CT      -0.061200
     27 C27         -5.9020     2.1310    -2.4240 c3         1 8CT      -0.055900
     28 C28         -5.3500     0.8270    -0.3220 ce         1 8CT      -0.146000
     29 C29         -5.7620    -0.3480    -0.8090 c2         1 8CT      -0.139200
     30 C30         -5.7390    -1.6310    -0.0300 c6         1 8CT       0.013700
     31 C31         -7.1700    -2.0660     0.2110 c2         1 8CT      -0.110400
     32 C32         -7.7300    -3.0610    -0.4780 c2         1 8CT      -0.169200
     33 C33         -7.0200    -3.8870    -1.5020 c6         1 8CT      -0.037200
     34 C34         -5.6690    -3.3040    -1.8980 c6         1 8CT      -0.065400
     35 C35         -4.8940    -2.7400    -0.7040 c6         1 8CT      -0.034000
     36 C36         -4.6110    -3.8430     0.3190 c3         1 8CT      -0.083600
     37 C37         -3.5560    -2.1790    -1.1840 c3         1 8CT      -0.083600
     38 C38         -7.9150    -1.3030     1.2640 c3         1 8CT      -0.053900
     39 C39         -0.0770    -0.5180     0.5770 c3         1 8CT      -0.053900
     40 C40          4.9560    -1.0140     3.1390 c3         1 8CT      -0.056900
     41 H1           7.1750     1.9320    -1.8240 hc         1 8CT       0.042033
     42 H2           5.6610     1.1170    -2.1460 hc         1 8CT       0.042033
     43 H3           6.1850     1.3490    -0.4840 hc         1 8CT       0.042033
     44 H6           9.2800    -3.4860    -2.1580 hc         1 8CT       0.041200
     45 H7           7.7400    -2.9780    -2.8240 hc         1 8CT       0.041200
     46 H8          10.0090    -1.0700    -2.1010 hc         1 8CT       0.041200
     47 H9           9.5990    -1.5880    -3.7200 hc         1 8CT       0.041200
     48 H10          7.4670    -0.4800    -3.6680 hc         1 8CT       0.044700
     49 H11          8.6010     0.6590    -3.0030 hc         1 8CT       0.044700
     50 H12          8.8060    -2.3370     1.2860 hc         1 8CT       0.033867
     51 H13          9.7520    -3.3480     0.2030 hc         1 8CT       0.033867
     52 H14          9.8410    -1.5900     0.0760 hc         1 8CT       0.033867
     53 H15          6.2540    -3.7120    -1.0910 hc         1 8CT       0.033867
     54 H16          7.6810    -4.6000    -0.5490 hc         1 8CT       0.033867
     55 H17          6.7430    -3.6520     0.6000 hc         1 8CT       0.033867
     56 H18          6.8700    -1.3880     1.4830 ha         1 8CT       0.122000
     57 H19          4.5880    -0.4030    -0.2840 ha         1 8CT       0.124000
     58 H20          2.6910     0.1350     0.7670 ha         1 8CT       0.125000
     59 H21          2.4920    -0.0640     3.8550 ha         1 8CT       0.119000
     60 H22          0.3110     0.6850     3.6610 ha         1 8CT       0.125000
     61 H23         -1.2060     1.8430     0.3440 ha         1 8CT       0.125000
     62 H24          0.1410     2.9730     2.9070 ha         1 8CT       0.122000
     63 H25         -1.1050     4.9150     2.6190 ha         1 8CT       0.120000
     64 H26         -2.3080     3.5920     0.0840 ha         1 8CT       0.128000
     65 H27         -2.9560     7.5660     0.9990 hc         1 8CT       0.041033
     66 H28         -3.8650     6.7000     2.2190 hc         1 8CT       0.041033
     67 H29         -2.1040     6.6720     2.2530 hc         1 8CT       0.041033
     68 H30         -4.1360     6.5120    -0.8080 ha         1 8CT       0.121000
     69 H31         -5.3520     4.7790    -1.7560 ha         1 8CT       0.120000
     70 H32         -4.4190     3.0060     0.5940 ha         1 8CT       0.129000
     71 H33         -5.3170     1.4900    -3.0870 hc         1 8CT       0.041700
     72 H34         -6.9260     1.7530    -2.4460 hc         1 8CT       0.041700
     73 H35         -5.9080     3.1290    -2.8570 hc         1 8CT       0.041700
     74 H36         -4.9550     0.8530     0.6910 ha         1 8CT       0.120000
     75 H37         -6.1620    -0.4070    -1.8180 ha         1 8CT       0.123000
     76 H38         -5.2840    -1.4120     0.9460 hc         1 8CT       0.054700
     77 H40         -8.7620    -3.3270    -0.2680 ha         1 8CT       0.119000
     78 H42         -6.8990    -4.9050    -1.1110 hc         1 8CT       0.044700
     79 H43         -7.6500    -3.9990    -2.3900 hc         1 8CT       0.044700
     80 H44         -5.0650    -4.0680    -2.3970 hc         1 8CT       0.039700
     81 H45         -5.8170    -2.5090    -2.6360 hc         1 8CT       0.039700
     82 H46         -4.0500    -4.6600    -0.1400 hc         1 8CT       0.034367
     83 H47         -4.0100    -3.4580     1.1460 hc         1 8CT       0.034367
     84 H48         -5.5230    -4.2620     0.7450 hc         1 8CT       0.034367
     85 H49         -3.6860    -1.4360    -1.9720 hc         1 8CT       0.034367
     86 H50         -3.0090    -1.7000    -0.3680 hc         1 8CT       0.034367
     87 H51         -2.9290    -2.9800    -1.5810 hc         1 8CT       0.034367
     88 H52         -7.8700    -0.2270     1.0850 hc         1 8CT       0.040367
     89 H53         -8.9650    -1.5950     1.3110 hc         1 8CT       0.040367
     90 H54         -7.4760    -1.4740     2.2500 hc         1 8CT       0.040367
     91 H55         -0.5620    -1.3500     1.0950 hc         1 8CT       0.043367
     92 H56         -0.6770    -0.2710    -0.2980 hc         1 8CT       0.043367
     93 H57          0.8860    -0.8930     0.2290 hc         1 8CT       0.043367
     94 H58          5.8250    -0.3930     3.3650 hc         1 8CT       0.041700
     95 H59          4.2820    -0.9600     3.9900 hc         1 8CT       0.041700
     96 H60          5.3130    -2.0430     3.0720 hc         1 8CT       0.041700
@<TRIPOS>BOND
     1     1     2 1   
     2     1    41 1   
     3     1    42 1   
     4     1    43 1   
     5     2     3 2   
     6     2     7 1   
     7     3     4 1   
     8     3    10 1   
     9     4     5 1   
    10     4     8 1   
    11     4     9 1   
    12     5     6 1   
    13     5    44 1   
    14     5    45 1   
    15     6     7 1   
    16     6    46 1   
    17     6    47 1   
    18     7    48 1   
    19     7    49 1   
    20     8    50 1   
    21     8    51 1   
    22     8    52 1   
    23     9    53 1   
    24     9    54 1   
    25     9    55 1   
    26    10    11 2   
    27    10    56 1   
    28    11    12 1   
    29    11    57 1   
    30    12    13 2   
    31    12    40 1   
    32    13    14 1   
    33    13    58 1   
    34    14    15 2   
    35    14    59 1   
    36    15    16 1   
    37    15    60 1   
    38    16    17 2   
    39    16    39 1   
    40    17    18 1   
    41    17    61 1   
    42    18    19 2   
    43    18    62 1   
    44    19    20 1   
    45    19    63 1   
    46    20    21 2   
    47    20    64 1   
    48    21    22 1   
    49    21    23 1   
    50    22    65 1   
    51    22    66 1   
    52    22    67 1   
    53    23    24 2   
    54    23    68 1   
    55    24    25 1   
    56    24    69 1   
    57    25    26 2   
    58    25    70 1   
    59    26    27 1   
    60    26    28 1   
    61    27    71 1   
    62    27    72 1   
    63    27    73 1   
    64    28    29 2   
    65    28    74 1   
    66    29    30 1   
    67    29    75 1   
    68    30    31 1   
    69    30    35 1   
    70    30    76 1   
    71    31    32 2   
    72    31    38 1   
    73    32    33 1   
    74    32    77 1   
    75    33    34 1   
    76    33    78 1   
    77    33    79 1   
    78    34    35 1   
    79    34    80 1   
    80    34    81 1   
    81    35    36 1   
    82    35    37 1   
    83    36    82 1   
    84    36    83 1   
    85    36    84 1   
    86    37    85 1   
    87    37    86 1   
    88    37    87 1   
    89    38    88 1   
    90    38    89 1   
    91    38    90 1   
    92    39    91 1   
    93    39    92 1   
    94    39    93 1   
    95    40    94 1   
    96    40    95 1   
    97    40    96 1   
@<TRIPOS>SUBSTRUCTURE
     1 8CT         1 TEMP              0 ****  ****    0 ROOT
