@<TRIPOS>MOLECULE
8CT
   96    97     1     0     0
SMALL
No Charge or Current Charge


@<TRIPOS>ATOM
      1 C01          6.5900     0.6540    -1.8200 c3         1 8CT      -0.057900
      2 C02          7.2320    -0.7280    -1.7830 c2         1 8CT      -0.095400
      3 C03          7.1490    -1.5890    -0.7020 ce         1 8CT      -0.081200
      4 C04          7.9180    -2.9380    -0.6810 c6         1 8CT       0.000200
      5 C05          8.2710    -3.3730    -2.1590 c6         1 8CT      -0.067400
      6 C06          8.9110    -2.2530    -3.0470 c6         1 8CT      -0.071400
      7 C07          7.9500    -1.0510    -3.1340 c6         1 8CT      -0.041200
      8 C08          9.2260    -2.7600     0.1510 c3         1 8CT      -0.081100
      9 C09          7.0700    -4.0650    -0.0120 c3         1 8CT      -0.081100
     10 C10          6.4320    -1.2660     0.5690 ce         1 8CT      -0.158000
     11 C11          5.1610    -0.7690     0.6320 cf         1 8CT      -0.189000
     12 C12          4.3870    -0.4510     1.8350 cf         1 8CT      -0.062200
     13 C13          3.2340     0.2740     1.7290 ce         1 8CT      -0.183000
     14 C14          2.3430     0.6910     2.8250 ce         1 8CT      -0.167000
     15 C15          1.0810     1.1980     2.7090 cf         1 8CT      -0.178000
     16 C16          0.2750     1.3750     1.4970 cf         1 8CT      -0.068200
     17 C17         -0.5700     2.4320     1.3250 ce         1 8CT      -0.185000
     18 C18         -0.7310     3.5800     2.2360 ce         1 8CT      -0.169000
     19 C19         -1.6610     4.5740     2.1430 cf         1 8CT      -0.173000
     20 C20         -2.7080     4.7000     1.1290 cf         1 8CT      -0.178000
     21 C21         -3.6400     5.6960     1.0440 ce         1 8CT      -0.070200
     22 C22         -3.6670     6.8700     2.0110 c3         1 8CT      -0.053900
     23 C23         -4.6570     5.7370    -0.0240 ce         1 8CT      -0.178000
     24 C24         -5.3320     4.6860    -0.5760 cf         1 8CT      -0.168000
     25 C25         -5.2530     3.2870    -0.1550 cf         1 8CT      -0.188000
     26 C26         -5.6380     2.1850    -0.8650 ce         1 8CT      -0.061200
     27 C27         -6.1580     2.2640    -2.2980 c3         1 8CT      -0.055900
     28 C28         -5.4850     0.8420    -0.2690 ce         1 8CT      -0.196000
     29 C29         -5.9290    -0.3260    -0.7940 c2         1 8CT      -0.189200
     30 C30         -5.7140    -1.6810    -0.0790 c6         1 8CT       0.013700
     31 C31         -7.0110    -2.4920    -0.1520 c2         1 8CT      -0.110400
     32 C32         -7.1370    -3.5370    -1.0160 c2         1 8CT      -0.219200
     33 C33         -6.0450    -4.0480    -1.9930 c6         1 8CT      -0.037200
     34 C34         -4.8350    -3.0810    -2.0420 c6         1 8CT      -0.065400
     35 C35         -4.4790    -2.4800    -0.6440 c6         1 8CT      -0.034000
     36 C36         -4.0690    -3.6120     0.3560 c3         1 8CT      -0.083600
     37 C37         -3.2240    -1.5590    -0.7800 c3         1 8CT      -0.083600
     38 C38         -8.1170    -2.0430     0.7840 c3         1 8CT      -0.053900
     39 C39          0.2910     0.2500     0.4710 c3         1 8CT      -0.053900
     40 C40          4.8780    -1.0220     3.1630 c3         1 8CT      -0.056900
     41 H1           7.2060     1.3710    -2.3750 hc         1 8CT       0.042033
     42 H2           5.6080     0.6170    -2.3060 hc         1 8CT       0.042033
     43 H3           6.4590     1.0780    -0.8180 hc         1 8CT       0.042033
     44 H6           8.9410    -4.2440    -2.1400 hc         1 8CT       0.041200
     45 H7           7.3550    -3.7200    -2.6580 hc         1 8CT       0.041200
     46 H8           9.8680    -1.9350    -2.6130 hc         1 8CT       0.041200
     47 H9           9.1330    -2.6370    -4.0520 hc         1 8CT       0.041200
     48 H10          7.1840    -1.2560    -3.8950 hc         1 8CT       0.044700
     49 H11          8.5120    -0.1770    -3.4930 hc         1 8CT       0.044700
     50 H12          9.0130    -2.5410     1.2040 hc         1 8CT       0.033867
     51 H13          9.8420    -3.6670     0.1260 hc         1 8CT       0.033867
     52 H14          9.8370    -1.9350    -0.2330 hc         1 8CT       0.033867
     53 H15          6.0970    -4.1740    -0.5070 hc         1 8CT       0.033867
     54 H16          7.5800    -5.0340    -0.0730 hc         1 8CT       0.033867
     55 H17          6.8800    -3.8690     1.0500 hc         1 8CT       0.033867
     56 H18          6.9390    -1.4790     1.5230 ha         1 8CT       0.172000
     57 H19          4.6560    -0.5850    -0.3170 ha         1 8CT       0.174000
     58 H20          2.9510     0.6150     0.7340 ha         1 8CT       0.175000
     59 H21          2.7530     0.6280     3.8350 ha         1 8CT       0.169000
     60 H22          0.5980     1.5100     3.6380 ha         1 8CT       0.175000
     61 H23         -1.1720     2.4390     0.4170 ha         1 8CT       0.175000
     62 H24         -0.0260     3.6440     3.0670 ha         1 8CT       0.172000
     63 H25         -1.6250     5.3490     2.9110 ha         1 8CT       0.170000
     64 H26         -2.7370     3.9320     0.3590 ha         1 8CT       0.178000
     65 H27         -4.4600     7.5880     1.7690 hc         1 8CT       0.041033
     66 H28         -3.8420     6.5300     3.0380 hc         1 8CT       0.041033
     67 H29         -2.7170     7.4180     1.9960 hc         1 8CT       0.041033
     68 H30         -4.8940     6.7310    -0.4080 ha         1 8CT       0.171000
     69 H31         -6.0350     4.9200    -1.3770 ha         1 8CT       0.170000
     70 H32         -4.8630     3.1180     0.8490 ha         1 8CT       0.179000
     71 H33         -5.7410     1.4670    -2.9240 hc         1 8CT       0.041700
     72 H34         -7.2510     2.1780    -2.3260 hc         1 8CT       0.041700
     73 H35         -5.8850     3.2010    -2.7940 hc         1 8CT       0.041700
     74 H36         -4.9640     0.8150     0.6890 ha         1 8CT       0.170000
     75 H37         -6.4750    -0.3310    -1.7510 ha         1 8CT       0.173000
     76 H38         -5.5100    -1.4750     0.9820 hc         1 8CT       0.054700
     77 H40         -8.0730    -4.0950    -1.0490 ha         1 8CT       0.169000
     78 H42         -5.7160    -5.0470    -1.6770 hc         1 8CT       0.044700
     79 H43         -6.4670    -4.1650    -3.0010 hc         1 8CT       0.044700
     80 H44         -3.9670    -3.6050    -2.4680 hc         1 8CT       0.039700
     81 H45         -5.0630    -2.2640    -2.7390 hc         1 8CT       0.039700
     82 H46         -3.2450    -4.2180    -0.0410 hc         1 8CT       0.034367
     83 H47         -3.7370    -3.1970     1.3150 hc         1 8CT       0.034367
     84 H48         -4.8990    -4.2930     0.5740 hc         1 8CT       0.034367
     85 H49         -3.3700    -0.7760    -1.5340 hc         1 8CT       0.034367
     86 H50         -2.9870    -1.0640     0.1690 hc         1 8CT       0.034367
     87 H51         -2.3380    -2.1300    -1.0830 hc         1 8CT       0.034367
     88 H52         -8.4050    -1.0040     0.5870 hc         1 8CT       0.040367
     89 H53         -9.0170    -2.6610     0.6740 hc         1 8CT       0.040367
     90 H54         -7.7980    -2.1100     1.8310 hc         1 8CT       0.040367
     91 H55          0.6640    -0.6890     0.8970 hc         1 8CT       0.043367
     92 H56         -0.7170     0.0470     0.0900 hc         1 8CT       0.043367
     93 H57          0.9170     0.5050    -0.3920 hc         1 8CT       0.043367
     94 H58          5.6080    -0.3540     3.6340 hc         1 8CT       0.041700
     95 H59          4.0610    -1.1810     3.8750 hc         1 8CT       0.041700
     96 H60          5.3510    -2.0020     3.0350 hc         1 8CT       0.041700
@<TRIPOS>BOND
     1     1     2 1   
     2     1    41 1   
     3     1    42 1   
     4     1    43 1   
     5     2     3 2   
     6     2     7 1   
     7     3     4 1   
     8     3    10 1   
     9     4     5 1   
    10     4     8 1   
    11     4     9 1   
    12     5     6 1   
    13     5    44 1   
    14     5    45 1   
    15     6     7 1   
    16     6    46 1   
    17     6    47 1   
    18     7    48 1   
    19     7    49 1   
    20     8    50 1   
    21     8    51 1   
    22     8    52 1   
    23     9    53 1   
    24     9    54 1   
    25     9    55 1   
    26    10    11 2   
    27    10    56 1   
    28    11    12 1   
    29    11    57 1   
    30    12    13 2   
    31    12    40 1   
    32    13    14 1   
    33    13    58 1   
    34    14    15 2   
    35    14    59 1   
    36    15    16 1   
    37    15    60 1   
    38    16    17 2   
    39    16    39 1   
    40    17    18 1   
    41    17    61 1   
    42    18    19 2   
    43    18    62 1   
    44    19    20 1   
    45    19    63 1   
    46    20    21 2   
    47    20    64 1   
    48    21    22 1   
    49    21    23 1   
    50    22    65 1   
    51    22    66 1   
    52    22    67 1   
    53    23    24 2   
    54    23    68 1   
    55    24    25 1   
    56    24    69 1   
    57    25    26 2   
    58    25    70 1   
    59    26    27 1   
    60    26    28 1   
    61    27    71 1   
    62    27    72 1   
    63    27    73 1   
    64    28    29 2   
    65    28    74 1   
    66    29    30 1   
    67    29    75 1   
    68    30    31 1   
    69    30    35 1   
    70    30    76 1   
    71    31    32 2   
    72    31    38 1   
    73    32    33 1   
    74    32    77 1   
    75    33    34 1   
    76    33    78 1   
    77    33    79 1   
    78    34    35 1   
    79    34    80 1   
    80    34    81 1   
    81    35    36 1   
    82    35    37 1   
    83    36    82 1   
    84    36    83 1   
    85    36    84 1   
    86    37    85 1   
    87    37    86 1   
    88    37    87 1   
    89    38    88 1   
    90    38    89 1   
    91    38    90 1   
    92    39    91 1   
    93    39    92 1   
    94    39    93 1   
    95    40    94 1   
    96    40    95 1   
    97    40    96 1   
@<TRIPOS>SUBSTRUCTURE
     1 8CT         1 TEMP              0 ****  ****    0 ROOT
