@<TRIPOS>MOLECULE
8CU
   41    43     1     0     0
SMALL
No Charge or Current Charge


@<TRIPOS>ATOM
      1 C01         -3.1500     2.4130    -0.1080 ca         1 8CU       0.232100
      2 C02         -2.2770     3.3490    -0.6640 ca         1 8CU      -0.219000
      3 C03         -0.8940     3.1400    -0.6220 ca         1 8CU       0.247100
      4 C04         -0.3510     1.9640    -0.0470 ca         1 8CU      -0.296500
      5 C05         -1.2500     1.0520     0.5550 ca         1 8CU       0.032000
      6 C06         -2.6370     1.2660     0.5120 ca         1 8CU      -0.175900
      7 C10          1.1040     1.7210     0.0330 cc         1 8CU       0.411500
      8 O12          3.2470     2.1250     0.2090 os         1 8CU      -0.032700
      9 C13          3.0600     0.7770     0.3330 cd         1 8CU       0.336900
     10 O07         -0.0940     4.0890    -1.1770 oh         1 8CU      -0.532100
     11 O08         -4.4920     2.6330    -0.1550 oh         1 8CU      -0.520100
     12 Br1         -3.8040    -0.0230     1.3250 br         1 8CU      -0.099100
     13 N11          1.9630     2.7340     0.0050 nd         1 8CU      -0.450300
     14 C14          1.7350     0.4700     0.2870 cc         1 8CU      -0.239000
     15 C15          1.2650    -0.9190     0.1490 ca         1 8CU      -0.056000
     16 C16          1.7710    -1.9440     0.9750 ca         1 8CU      -0.064000
     17 C17          1.3140    -3.2660     0.8330 ca         1 8CU      -0.175500
     18 C18          0.3490    -3.5870    -0.1320 ca         1 8CU       0.149100
     19 C19         -0.1630    -2.5690    -0.9630 ca         1 8CU      -0.175500
     20 C20          0.2940    -1.2470    -0.8210 ca         1 8CU      -0.064000
     21 O21         -0.0620    -4.9010    -0.2230 os         1 8CU      -0.339100
     22 C22         -1.0530    -5.3310    -1.1740 c3         1 8CU       0.147900
     23 N23          4.1100    -0.1170     0.3250 ns         1 8CU      -0.494400
     24 C24          5.4560     0.1590     0.3580 c          1 8CU       0.610100
     25 C25          6.3510    -1.0710     0.3140 c3         1 8CU      -0.181100
     26 O26          5.9110     1.2910     0.4220 o          1 8CU      -0.520100
     27 H1          -2.6740     4.2460    -1.1290 ha         1 8CU       0.150000
     28 H2          -0.8850     0.1770     1.0870 ha         1 8CU       0.140000
     29 H3           0.8290     3.8530    -0.9180 ho         1 8CU       0.514000
     30 H4          -4.9250     1.8750     0.2920 ho         1 8CU       0.484000
     31 H5           2.4920    -1.7170     1.7570 ha         1 8CU       0.120500
     32 H6           1.7040    -4.0460     1.4820 ha         1 8CU       0.126000
     33 H7          -0.9090    -2.7820    -1.7230 ha         1 8CU       0.126000
     34 H8          -0.0980    -0.4780    -1.4820 ha         1 8CU       0.120500
     35 H9          -1.2320    -6.4080    -1.0750 h1         1 8CU       0.043367
     36 H10         -2.0050    -4.8110    -1.0070 h1         1 8CU       0.043367
     37 H11         -0.7190    -5.1350    -2.2010 h1         1 8CU       0.043367
     38 H12          3.8880    -1.1020     0.2750 hn         1 8CU       0.343500
     39 H13          6.1020    -1.6630    -0.5740 hc         1 8CU       0.070700
     40 H14          7.4170    -0.8170     0.3450 hc         1 8CU       0.070700
     41 H15          6.0730    -1.7450     1.1320 hc         1 8CU       0.070700
@<TRIPOS>BOND
     1     1     2 ar  
     2     1     6 ar  
     3     1    11 1   
     4     2     3 ar  
     5     2    27 1   
     6     3     4 ar  
     7     3    10 1   
     8     4     5 ar  
     9     4     7 1   
    10     5     6 ar  
    11     5    28 1   
    12     6    12 1   
    13     7    13 2   
    14     7    14 1   
    15     8     9 1   
    16     8    13 1   
    17     9    14 2   
    18     9    23 1   
    19    10    29 1   
    20    11    30 1   
    21    14    15 1   
    22    15    16 ar  
    23    15    20 ar  
    24    16    17 ar  
    25    16    31 1   
    26    17    18 ar  
    27    17    32 1   
    28    18    19 ar  
    29    18    21 1   
    30    19    20 ar  
    31    19    33 1   
    32    20    34 1   
    33    21    22 1   
    34    22    35 1   
    35    22    36 1   
    36    22    37 1   
    37    23    24 1   
    38    23    38 1   
    39    24    25 1   
    40    24    26 2   
    41    25    39 1   
    42    25    40 1   
    43    25    41 1   
@<TRIPOS>SUBSTRUCTURE
     1 8CU         1 TEMP              0 ****  ****    0 ROOT
