@<TRIPOS>MOLECULE
8CU
   41    43     1     0     0
SMALL
bcc


@<TRIPOS>ATOM
      1 C01         -3.1110     2.4830    -0.0170 ca         1 8CU       0.232100
      2 C02         -2.1760     3.4440    -0.3790 ca         1 8CU      -0.237000
      3 C03         -0.8120     3.1900    -0.3220 ca         1 8CU       0.247100
      4 C04         -0.3510     1.9190     0.0840 ca         1 8CU      -0.296500
      5 C05         -1.2960     0.9680     0.4610 ca         1 8CU       0.014000
      6 C06         -2.6490     1.2330     0.4160 ca         1 8CU      -0.175900
      7 C10          1.0750     1.6050     0.1090 cc         1 8CU       0.476800
      8 O12          3.1890     2.0230     0.1050 os         1 8CU      -0.077100
      9 C13          3.0550     0.7060     0.1110 cd         1 8CU       0.446600
     10 O07          0.0030     4.1860    -0.6740 oh         1 8CU      -0.493100
     11 O08         -4.3970     2.8280    -0.1000 oh         1 8CU      -0.481100
     12 BR1         -3.8770    -0.1020     0.9410 br         1 8CU      -0.099100
     13 N11          1.9430     2.5850     0.1090 nd         1 8CU      -0.450300
     14 C14          1.7380     0.3460     0.1110 cc         1 8CU      -0.369600
     15 C15          1.2080    -1.0230     0.0700 ca         1 8CU      -0.056000
     16 C16          1.3930    -1.8980     1.1430 ca         1 8CU      -0.082000
     17 C17          0.8920    -3.1850     1.1060 ca         1 8CU      -0.193500
     18 C18          0.1810    -3.6320    -0.0100 ca         1 8CU       0.149100
     19 C19         -0.0080    -2.7690    -1.0900 ca         1 8CU      -0.193500
     20 C20          0.5090    -1.4830    -1.0420 ca         1 8CU      -0.082000
     21 O21         -0.2790    -4.8920     0.0420 os         1 8CU      -0.315900
     22 C22         -0.9890    -5.4050    -1.0690 c3         1 8CU       0.124700
     23 N23          4.1550    -0.0990     0.0920 ns         1 8CU      -0.561400
     24 C24          5.4810     0.2770     0.1520 c          1 8CU       0.677100
     25 C25          6.4250    -0.8910     0.1050 c3         1 8CU      -0.181100
     26 O26          5.8250     1.4330     0.2370 o          1 8CU      -0.520100
     27 H1          -2.5210     4.4180    -0.7030 ha         1 8CU       0.168000
     28 H2          -0.9630     0.0010     0.8090 ha         1 8CU       0.158000
     29 H3           0.9360     3.9360    -0.5170 ho         1 8CU       0.475000
     30 H4          -4.9890     2.1160     0.1740 ho         1 8CU       0.445000
     31 H5           1.9230    -1.5620     2.0260 ha         1 8CU       0.138500
     32 H6           1.0410    -3.8530     1.9440 ha         1 8CU       0.144000
     33 H7          -0.5470    -3.0810    -1.9740 ha         1 8CU       0.144000
     34 H8           0.3590    -0.8260    -1.8890 ha         1 8CU       0.138500
     35 H9          -1.2630    -6.4260    -0.8150 h1         1 8CU       0.043367
     36 H10         -1.9010    -4.8370    -1.2710 h1         1 8CU       0.043367
     37 H11         -0.3750    -5.4180    -1.9730 h1         1 8CU       0.043367
     38 H12          3.9520    -1.0870     0.0260 hn         1 8CU       0.343500
     39 H13          6.2750    -1.4740    -0.8040 hc         1 8CU       0.070700
     40 H14          7.4520    -0.5410     0.1350 hc         1 8CU       0.070700
     41 H15          6.2540    -1.5570     0.9520 hc         1 8CU       0.070700
@<TRIPOS>BOND
     1     1     2 ar  
     2     1     6 ar  
     3     1    11 1   
     4     2     3 ar  
     5     2    27 1   
     6     3     4 ar  
     7     3    10 1   
     8     4     5 ar  
     9     4     7 1   
    10     5     6 ar  
    11     5    28 1   
    12     6    12 1   
    13     7    13 2   
    14     7    14 1   
    15     8     9 1   
    16     8    13 1   
    17     9    14 2   
    18     9    23 1   
    19    10    29 1   
    20    11    30 1   
    21    14    15 1   
    22    15    16 ar  
    23    15    20 ar  
    24    16    17 ar  
    25    16    31 1   
    26    17    18 ar  
    27    17    32 1   
    28    18    19 ar  
    29    18    21 1   
    30    19    20 ar  
    31    19    33 1   
    32    20    34 1   
    33    21    22 1   
    34    22    35 1   
    35    22    36 1   
    36    22    37 1   
    37    23    24 1   
    38    23    38 1   
    39    24    25 1   
    40    24    26 2   
    41    25    39 1   
    42    25    40 1   
    43    25    41 1   
@<TRIPOS>SUBSTRUCTURE
     1 8CU         1 TEMP              0 ****  ****    0 ROOT
