@<TRIPOS>MOLECULE
8CV
   30    30     1     0     0
SMALL
bcc


@<TRIPOS>ATOM
      1 C1           2.4710    -0.4900     0.0070 ca         1 8CV      -0.078300
      2 C2           1.0050    -0.8210     0.0200 c3         1 8CV      -0.050100
      3 C3           3.1760    -0.4230    -1.1920 ca         1 8CV      -0.123000
      4 C4           3.1450    -0.2010     1.1920 ca         1 8CV      -0.123000
      5 C5           0.1580     0.4430    -0.0970 c3         1 8CV       0.251800
      6 C6           4.5200    -0.0740    -1.2100 ca         1 8CV      -0.127500
      7 C7           4.4890     0.1450     1.1800 ca         1 8CV      -0.127500
      8 N1          -1.2410     0.1040    -0.0890 nu         1 8CV      -0.877200
      9 C8           5.1820     0.2100    -0.0220 ca         1 8CV      -0.129000
     10 C9          -2.1880     1.0600    -0.0340 c2         1 8CV       0.863100
     11 N2          -3.5110     0.6180     0.0510 nu         1 8CV      -0.876200
     12 N3          -1.8810     2.3060    -0.0720 n2         1 8CV      -0.916100
     13 C10         -4.0060    -0.6670     0.1400 c2         1 8CV       0.840100
     14 N4          -3.2270    -1.6830     0.1860 n2         1 8CV      -0.921100
     15 N5          -5.3720    -0.7010     0.2280 nv         1 8CV      -0.966800
     16 H1           0.7670    -1.4970    -0.8050 hc         1 8CV       0.052200
     17 H2           0.7480    -1.3410     0.9460 hc         1 8CV       0.052200
     18 H3           2.6700    -0.6500    -2.1240 ha         1 8CV       0.129500
     19 H4           2.6120    -0.2550     2.1350 ha         1 8CV       0.129500
     20 H5           0.3930     1.1240     0.7280 h1         1 8CV       0.050200
     21 H6           0.4210     0.9750    -1.0180 h1         1 8CV       0.050200
     22 H7           5.0520    -0.0280    -2.1520 ha         1 8CV       0.129000
     23 H8           4.9970     0.3610     2.1110 ha         1 8CV       0.129000
     24 H9          -1.5540    -0.8570     0.0240 hn         1 8CV       0.488800
     25 H10          6.2310     0.4750    -0.0340 ha         1 8CV       0.129000
     26 H11         -4.1880     1.3620     0.0980 hn         1 8CV       0.436800
     27 H12         -2.7030     2.8960    -0.0310 hn         1 8CV       0.373400
     28 H13         -3.7460    -2.5500     0.2270 hn         1 8CV       0.395400
     29 H14         -5.8940     0.0580    -0.1800 hn         1 8CV       0.408300
     30 H15         -5.7990    -1.5970     0.0560 hn         1 8CV       0.408300
@<TRIPOS>BOND
     1     1     2 1   
     2     1     3 ar  
     3     1     4 ar  
     4     2     5 1   
     5     2    16 1   
     6     2    17 1   
     7     3     6 ar  
     8     3    18 1   
     9     4     7 ar  
    10     4    19 1   
    11     5     8 1   
    12     5    20 1   
    13     5    21 1   
    14     6     9 ar  
    15     6    22 1   
    16     7     9 ar  
    17     7    23 1   
    18     8    10 1   
    19     8    24 1   
    20     9    25 1   
    21    10    11 1   
    22    10    12 2   
    23    11    13 1   
    24    11    26 1   
    25    12    27 1   
    26    13    14 2   
    27    13    15 1   
    28    14    28 1   
    29    15    29 1   
    30    15    30 1   
@<TRIPOS>SUBSTRUCTURE
     1 8CV         1 TEMP              0 ****  ****    0 ROOT
