@<TRIPOS>MOLECULE
8CV
   30    30     1     0     0
SMALL
No Charge or Current Charge


@<TRIPOS>ATOM
      1 C1           2.4590    -0.4700    -0.1480 ca         1 8CV      -0.078300
      2 C2           1.0030    -0.8220    -0.4250 c3         1 8CV      -0.050100
      3 C3           3.3240    -0.1380    -1.2100 ca         1 8CV      -0.105000
      4 C4           2.9500    -0.4660     1.1720 ca         1 8CV      -0.105000
      5 C5           0.0940     0.4230    -0.3990 c3         1 8CV       0.251800
      6 C6           4.6660     0.1930    -0.9530 ca         1 8CV      -0.109500
      7 C7           4.2920    -0.1350     1.4280 ca         1 8CV      -0.109500
      8 N1          -1.3010     0.0520    -0.6650 nu         1 8CV      -0.932400
      9 C8           5.1510     0.1940     0.3650 ca         1 8CV      -0.111000
     10 C9          -2.3110     0.9050    -0.6250 c2         1 8CV       0.863100
     11 N2          -3.2200     0.4460     0.2060 nu         1 8CV      -0.931400
     12 N3          -2.1550     2.1350    -0.7980 n2         1 8CV      -0.916100
     13 C10         -3.9270    -0.6190     0.0290 c2         1 8CV       0.840100
     14 N4          -3.3840    -1.7110     0.2610 n2         1 8CV      -0.921100
     15 N5          -5.0120    -0.2480     0.6380 nv         1 8CV      -1.077200
     16 H1           0.9140    -1.3110    -1.4030 hc         1 8CV       0.052200
     17 H2           0.6440    -1.5460     0.3170 hc         1 8CV       0.052200
     18 H3           2.9560    -0.1340    -2.2330 ha         1 8CV       0.111500
     19 H4           2.2920    -0.7170     2.0010 ha         1 8CV       0.111500
     20 H5           0.1740     0.9030     0.5860 h1         1 8CV       0.050200
     21 H6           0.4470     1.1400    -1.1540 h1         1 8CV       0.050200
     22 H7           5.3290     0.4480    -1.7770 ha         1 8CV       0.111000
     23 H8           4.6670    -0.1340     2.4490 ha         1 8CV       0.111000
     24 H9          -1.6490    -0.7700    -0.1710 hn         1 8CV       0.544000
     25 H10          6.1900     0.4500     0.5630 ha         1 8CV       0.111000
     26 H11         -3.8540     1.1420     0.5390 hn         1 8CV       0.492000
     27 H12         -2.9990     2.6120    -0.4710 hn         1 8CV       0.373400
     28 H13         -4.1290    -2.3790     0.4890 hn         1 8CV       0.395400
     29 H14         -5.8310    -0.4920     0.0940 hn         1 8CV       0.463500
     30 H15         -5.0500    -0.6500     1.5650 hn         1 8CV       0.463500
@<TRIPOS>BOND
     1     1     2 1   
     2     1     3 ar  
     3     1     4 ar  
     4     2     5 1   
     5     2    16 1   
     6     2    17 1   
     7     3     6 ar  
     8     3    18 1   
     9     4     7 ar  
    10     4    19 1   
    11     5     8 1   
    12     5    20 1   
    13     5    21 1   
    14     6     9 ar  
    15     6    22 1   
    16     7     9 ar  
    17     7    23 1   
    18     8    10 1   
    19     8    24 1   
    20     9    25 1   
    21    10    11 1   
    22    10    12 2   
    23    11    13 1   
    24    11    26 1   
    25    12    27 1   
    26    13    14 2   
    27    13    15 1   
    28    14    28 1   
    29    15    29 1   
    30    15    30 1   
@<TRIPOS>SUBSTRUCTURE
     1 8CV         1 TEMP              0 ****  ****    0 ROOT
