@<TRIPOS>MOLECULE
8CW
  108   112     1     0     0
SMALL
bcc


@<TRIPOS>ATOM
      1 C14         -4.0710   148.4000   485.5180 c3         1 8CW       0.819600
      2 C22          1.5800   149.7620   481.6080 ce         1 8CW      -0.133000
      3 C23          2.7830   150.5660   481.6770 ce         1 8CW      -0.120000
      4 C33         -1.4450   153.3960   483.8500 c2         1 8CW      -0.160400
      5 C34         -1.4300   153.4670   482.3510 c3         1 8CW      -0.050900
      6 C35         -0.5800   154.4240   484.5500 c3         1 8CW       0.213300
      7 C37          0.8950   154.3030   484.1240 c3         1 8CW      -0.199400
      8 C24          3.1350   151.5410   480.8230 c2         1 8CW      -0.111400
      9 C43          4.1780   156.0770   480.7030 ca         1 8CW       0.166100
     10 C45          4.9470   156.8150   478.5880 c3         1 8CW       0.124700
     11 C46          4.4310   154.7390   480.4140 ca         1 8CW      -0.221000
     12 C47          4.1660   153.7480   481.3510 ca         1 8CW      -0.015300
     13 C48          3.6510   154.0930   482.5920 ca         1 8CW      -0.172000
     14 O56          1.4410   142.3190   485.4880 oh         1 8CW      -0.557800
     15 C02          0.8870   140.7850   491.2740 ca         1 8CW       0.774200
     16 C03          0.2320   141.1220   490.0750 ca         1 8CW      -0.227200
     17 C05         -0.9920   141.3380   488.3670 cc         1 8CW       0.428700
     18 C07          0.0610   143.3350   487.2570 c5         1 8CW       0.213800
     19 C09         -1.2380   144.7150   485.9610 c5         1 8CW       0.090100
     20 C10         -2.6540   144.5830   485.4490 c3         1 8CW       0.210400
     21 C17         -2.6670   150.1160   484.4270 c3         1 8CW       0.189100
     22 C18         -1.6130   149.7440   483.3880 c3         1 8CW      -0.192400
     23 C19         -0.8980   148.4390   483.5700 c          1 8CW       0.567100
     24 C20          0.0030   148.0130   482.4030 c3         1 8CW       0.075300
     25 C21          1.2750   148.8010   482.4860 c2         1 8CW      -0.141200
     26 C26          4.4220   152.2960   481.0340 c3         1 8CW      -0.000900
     27 C30         -3.1910   151.5320   484.0920 c3         1 8CW      -0.045500
     28 C31         -4.5260   151.8670   484.7540 c3         1 8CW      -0.081100
     29 C32         -2.1790   152.5390   484.5610 c2         1 8CW      -0.122200
     30 C38          1.7630   155.3490   484.7900 c          1 8CW       0.681100
     31 C40          3.3660   155.4190   482.8920 ca         1 8CW       0.102600
     32 C41          3.6310   156.4060   481.9470 ca         1 8CW      -0.050600
     33 C53         -0.2030   144.0500   485.0290 c5         1 8CW       0.124100
     34 C55          0.1830   142.8070   485.8250 c5         1 8CW       0.105100
     35 C57          0.7500   142.1990   489.3750 ca         1 8CW       0.461800
     36 C59          2.3270   142.5310   490.8630 ca         1 8CW       0.696900
     37 N04         -0.8580   140.5990   489.4270 nd         1 8CW      -0.571100
     38 N06         -0.0450   142.3240   488.2700 na         1 8CW      -0.247000
     39 N39          2.8690   155.7920   484.1500 ns         1 8CW      -0.483100
     40 N50         -5.1940   149.0110   486.1530 n8         1 8CW      -0.933800
     41 N58          1.7980   142.9410   489.7240 nb         1 8CW      -0.730000
     42 N60          1.9430   141.5220   491.6390 nb         1 8CW      -0.839000
     43 O08         -1.1140   144.0920   487.2420 os         1 8CW      -0.375600
     44 O11         -3.5350   145.2130   486.3510 os         1 8CW      -0.553200
     45 O13         -4.4560   147.1790   484.9610 os         1 8CW      -0.586200
     46 O15         -3.0320   148.2490   486.4130 oh         1 8CW      -0.675800
     47 O16         -3.6910   149.1360   484.3790 os         1 8CW      -0.444600
     48 O27          0.2980   146.6440   482.4490 os         1 8CW      -0.397600
     49 O29         -0.9570   147.7560   484.5680 o          1 8CW      -0.511100
     50 O36         -0.7270   154.3170   485.9380 oh         1 8CW      -0.604800
     51 O49          1.4850   155.8110   485.8930 o          1 8CW      -0.613100
     52 O51         -5.6900   146.2480   487.0500 o          1 8CW      -0.803500
     53 O52         -5.5370   144.9530   484.7680 o          1 8CW      -0.803500
     54 O54          0.9370   144.8390   484.8300 oh         1 8CW      -0.586800
     55 P12         -4.9500   145.8430   485.8130 p5         1 8CW       1.413800
     56 CL1          3.2880   158.0600   482.2960 cl         1 8CW      -0.081400
     57 H1           0.8850   149.9480   480.7950 ha         1 8CW       0.120000
     58 H3           3.4540   150.3460   482.5040 ha         1 8CW       0.124000
     59 H5          -2.2860   152.9670   481.9040 hc         1 8CW       0.035367
     60 H6          -1.4310   154.5030   482.0040 hc         1 8CW       0.035367
     61 H7          -0.9320   155.4090   484.1980 h1         1 8CW       0.030700
     62 H8           1.2730   153.3130   484.3990 hc         1 8CW       0.077700
     63 H9           0.9790   154.3750   483.0400 hc         1 8CW       0.077700
     64 H10          5.0440   157.7720   478.0830 h1         1 8CW       0.044367
     65 H11          5.9320   156.3470   478.6540 h1         1 8CW       0.044367
     66 H12          4.2850   156.1720   478.0030 h1         1 8CW       0.044367
     67 H13          4.8450   154.4540   479.4560 ha         1 8CW       0.140000
     68 H14          3.4810   153.3290   483.3400 ha         1 8CW       0.152000
     69 H15          1.5380   141.4380   485.8620 ho         1 8CW       0.402000
     70 H17          0.9450   143.9340   487.5110 h2         1 8CW       0.107700
     71 H18         -0.9960   145.7760   486.0650 h1         1 8CW       0.085700
     72 H19         -2.6860   145.0400   484.4540 h1         1 8CW       0.021200
     73 H20         -2.9130   143.5240   485.3270 h1         1 8CW       0.021200
     74 H21         -2.2110   150.1530   485.4210 h1         1 8CW       0.059700
     75 H22         -0.8460   150.5250   483.3420 hc         1 8CW       0.067700
     76 H23         -2.0670   149.7430   482.3910 hc         1 8CW       0.067700
     77 H24         -0.5090   148.2710   481.4650 h1         1 8CW       0.052700
     78 H25          1.9370   148.5770   483.3180 ha         1 8CW       0.144000
     79 H30          5.0370   152.2250   480.1320 hc         1 8CW       0.057700
     80 H31          4.9910   151.8400   481.8470 hc         1 8CW       0.057700
     81 H35         -3.3330   151.5940   483.0080 hc         1 8CW       0.048700
     82 H36         -5.3070   151.1570   484.4890 hc         1 8CW       0.044367
     83 H37         -4.4360   151.8850   485.8420 hc         1 8CW       0.044367
     84 H38         -4.8520   152.8600   484.4410 hc         1 8CW       0.044367
     85 H39         -2.0900   152.5770   485.6430 ha         1 8CW       0.146000
     86 H40         -0.6630   143.7670   484.0730 h1         1 8CW       0.045700
     87 H41         -0.6060   142.0580   485.6660 h1         1 8CW       0.040700
     88 H42          3.1880   143.0890   491.2170 h5         1 8CW       0.039100
     89 H43          0.9740   139.5820   492.9150 hn         1 8CW       0.446800
     90 H44         -0.3100   139.2220   491.8180 hn         1 8CW       0.446800
     91 H45          3.3510   156.5470   484.6230 hn         1 8CW       0.333500
     92 H46         -5.5700   148.3790   486.8530 hn         1 8CW       0.381300
     93 H47         -4.9180   149.8660   486.6210 hn         1 8CW       0.381300
     94 H49         -2.2450   147.9260   485.9390 ho         1 8CW       0.446000
     95 H50         -0.0690   154.9210   486.3170 ho         1 8CW       0.439000
     96 H52          0.6920   145.6000   484.2850 ho         1 8CW       0.428000
     97 H2          -0.5320   152.9970   481.9400 hc         1 8CW       0.035367
     98 C25          2.3320   151.9820   479.6400 c3         1 8CW      -0.054900
     99 C28         -0.7100   145.8330   481.8760 c3         1 8CW       0.107700
    100 N01          0.5000   139.7700   492.0480 nv         1 8CW      -0.963500
    101 H27          1.4550   151.3680   479.4530 hc         1 8CW       0.042033
    102 H28          1.9920   153.0130   479.7670 hc         1 8CW       0.042033
    103 H29          2.9490   151.9690   478.7390 hc         1 8CW       0.042033
    104 H32         -0.3530   144.8050   481.8940 h1         1 8CW       0.043700
    105 H33         -1.6550   145.8830   482.4260 h1         1 8CW       0.043700
    106 H34         -0.9010   146.1160   480.8360 h1         1 8CW       0.043700
    107 O44          4.4100   157.0950   479.8690 os         1 8CW      -0.300900
    108 H16         -1.7640   141.2170   487.6220 h5         1 8CW       0.077800
@<TRIPOS>BOND
     1     1    40 1   
     2     1    45 1   
     3     1    46 1   
     4     1    47 1   
     5     2     3 1   
     6     2    25 2   
     7     2    57 1   
     8     3     8 2   
     9     3    58 1   
    10     4     5 1   
    11     4     6 1   
    12     4    29 2   
    13     5    59 1   
    14     5    60 1   
    15     5    97 1   
    16     6     7 1   
    17     6    50 1   
    18     6    61 1   
    19     7    30 1   
    20     7    62 1   
    21     7    63 1   
    22     8    26 1   
    23     8    98 1   
    24     9    11 ar  
    25     9    32 ar  
    26     9   107 1   
    27    10    64 1   
    28    10    65 1   
    29    10    66 1   
    30    10   107 1   
    31    11    12 ar  
    32    11    67 1   
    33    12    13 ar  
    34    12    26 1   
    35    13    31 ar  
    36    13    68 1   
    37    14    34 1   
    38    14    69 1   
    39    15    16 ar  
    40    15    42 ar  
    41    15   100 1   
    42    16    35 ar  
    43    16    37 1   
    44    17    37 2   
    45    17    38 1   
    46    17   108 1   
    47    18    34 1   
    48    18    38 1   
    49    18    43 1   
    50    18    70 1   
    51    19    20 1   
    52    19    33 1   
    53    19    43 1   
    54    19    71 1   
    55    20    44 1   
    56    20    72 1   
    57    20    73 1   
    58    21    22 1   
    59    21    27 1   
    60    21    47 1   
    61    21    74 1   
    62    22    23 1   
    63    22    75 1   
    64    22    76 1   
    65    23    24 1   
    66    23    49 2   
    67    24    25 1   
    68    24    48 1   
    69    24    77 1   
    70    25    78 1   
    71    26    79 1   
    72    26    80 1   
    73    27    28 1   
    74    27    29 1   
    75    27    81 1   
    76    28    82 1   
    77    28    83 1   
    78    28    84 1   
    79    29    85 1   
    80    30    39 1   
    81    30    51 2   
    82    31    32 ar  
    83    31    39 1   
    84    32    56 1   
    85    33    34 1   
    86    33    54 1   
    87    33    86 1   
    88    34    87 1   
    89    35    38 1   
    90    35    41 ar  
    91    36    41 ar  
    92    36    42 ar  
    93    36    88 1   
    94    39    91 1   
    95    40    92 1   
    96    40    93 1   
    97    44    55 1   
    98    45    55 1   
    99    46    94 1   
   100    48    99 1   
   101    50    95 1   
   102    52    55 1   
   103    53    55 1   
   104    54    96 1   
   105    89   100 1   
   106    90   100 1   
   107    98   101 1   
   108    98   102 1   
   109    98   103 1   
   110    99   104 1   
   111    99   105 1   
   112    99   106 1   
@<TRIPOS>SUBSTRUCTURE
     1 8CW         1 TEMP              0 ****  ****    0 ROOT
