@<TRIPOS>MOLECULE
8CW
  108   112     1     0     0
SMALL
No Charge or Current Charge


@<TRIPOS>ATOM
      1 C14         -3.6540   148.7050   486.6460 c3         1 8CW       0.889200
      2 C22          1.8390   150.3310   482.8600 ce         1 8CW      -0.183000
      3 C23          3.0130   151.2000   482.7040 ce         1 8CW      -0.170000
      4 C33         -1.7230   153.2770   482.9060 c2         1 8CW      -0.160400
      5 C34         -1.6620   152.7200   481.4890 c3         1 8CW      -0.050900
      6 C35         -1.2250   154.7210   482.9810 c3         1 8CW       0.236500
      7 C37          0.2810   154.7800   483.2880 c3         1 8CW      -0.199400
      8 C24          3.4160   151.7640   481.5410 c2         1 8CW      -0.111400
      9 C43          3.9220   156.0030   479.5380 ca         1 8CW       0.166100
     10 C45          5.1530   156.0470   477.3920 c3         1 8CW       0.147900
     11 C46          4.4440   154.7380   479.8840 ca         1 8CW      -0.203000
     12 C47          4.0930   154.1380   481.1070 ca         1 8CW      -0.015300
     13 C48          3.2230   154.8040   481.9850 ca         1 8CW      -0.154000
     14 O56          0.3920   142.6480   484.6200 oh         1 8CW      -0.680000
     15 C02          0.3230   138.6230   489.5060 ca         1 8CW       0.445900
     16 C03         -0.2460   139.6080   488.6720 ca         1 8CW      -0.096600
     17 C05         -1.4750   140.7930   487.3600 cc         1 8CW       0.428700
     18 C07          0.0100   142.8560   487.1200 c5         1 8CW       0.266300
     19 C09         -1.1310   144.9330   487.1270 c5         1 8CW       0.113300
     20 C10         -2.6790   144.7850   487.0320 c3         1 8CW       0.233600
     21 C17         -2.4520   150.5280   485.4670 c3         1 8CW       0.212300
     22 C18         -0.9510   150.4100   485.8740 c3         1 8CW      -0.192400
     23 C19         -0.3520   149.0240   485.5980 c          1 8CW       0.567100
     24 C20          0.3350   148.7870   484.2210 c3         1 8CW       0.098500
     25 C21          1.5430   149.6840   484.0070 c2         1 8CW      -0.191200
     26 C26          4.5820   152.7410   481.4620 c3         1 8CW      -0.000900
     27 C30         -2.6660   151.1520   484.0490 c3         1 8CW      -0.045500
     28 C31         -4.1520   151.1280   483.6140 c3         1 8CW      -0.081100
     29 C32         -2.1530   152.5900   483.9870 c2         1 8CW      -0.172200
     30 C38          0.7970   156.2250   483.4010 c          1 8CW       0.614100
     31 C40          2.6450   156.0370   481.6300 ca         1 8CW       0.010000
     32 C41          3.0200   156.6470   480.4140 ca         1 8CW       0.041000
     33 C53         -0.3980   144.7590   485.7530 c5         1 8CW       0.147300
     34 C55         -0.4420   143.1980   485.6600 c5         1 8CW       0.128300
     35 C57          0.4500   140.7760   488.4850 ca         1 8CW       0.133500
     36 C59          2.1140   140.0050   489.8520 ca         1 8CW       0.170900
     37 N04         -1.4600   139.5950   487.9770 nd         1 8CW      -0.571100
     38 N06         -0.3220   141.5330   487.6490 na         1 8CW      -0.276300
     39 N39          1.7220   156.6990   482.4820 ns         1 8CW      -0.157000
     40 N50         -4.6640   149.4960   487.1090 n8         1 8CW      -1.044200
     41 N58          1.6450   141.0040   489.0660 nb         1 8CW      -0.204000
     42 N60          1.5090   138.8190   490.1050 nb         1 8CW      -0.313000
     43 O08         -0.5870   143.8710   487.9650 os         1 8CW      -0.422000
     44 O11         -3.2930   145.7420   487.9060 os         1 8CW      -0.576400
     45 O13         -4.0880   147.4380   486.3360 os         1 8CW      -0.609400
     46 O15         -2.7920   148.7340   487.6930 oh         1 8CW      -0.738000
     47 O16         -3.0580   149.2120   485.4630 os         1 8CW      -0.491000
     48 O27          0.7770   147.4110   484.0840 os         1 8CW      -0.444000
     49 O29         -0.4270   148.1440   486.4510 o          1 8CW      -0.511100
     50 O36         -1.9450   155.4410   483.9850 oh         1 8CW      -0.667000
     51 O49          0.3450   156.9680   484.2640 o          1 8CW      -0.613100
     52 O51         -5.3480   147.1560   488.5550 o          1 8CW      -0.803500
     53 O52         -5.5790   145.4240   486.8190 o          1 8CW      -0.803500
     54 O54          0.9380   145.2970   485.7830 oh         1 8CW      -0.709000
     55 P12         -4.6700   146.4350   487.4360 p5         1 8CW       1.413800
     56 Cl1          2.3370   158.2200   479.9740 cl         1 8CW      -0.173000
     57 H1           1.1750   150.2220   482.0010 ha         1 8CW       0.170000
     58 H3           3.5710   151.4110   483.6180 ha         1 8CW       0.174000
     59 H5          -2.0350   151.6930   481.4150 hc         1 8CW       0.035367
     60 H6          -2.2650   153.3270   480.8030 hc         1 8CW       0.035367
     61 H7          -1.3870   155.2080   482.0090 h1         1 8CW       0.030700
     62 H8           0.4670   154.2720   484.2410 hc         1 8CW       0.077700
     63 H9           0.7950   154.2310   482.4970 hc         1 8CW       0.077700
     64 H10          5.2740   156.7140   476.5300 h1         1 8CW       0.044367
     65 H11          6.1430   155.8850   477.8380 h1         1 8CW       0.044367
     66 H12          4.7680   155.0870   477.0270 h1         1 8CW       0.044367
     67 H13          5.1130   154.2070   479.2140 ha         1 8CW       0.122000
     68 H14          2.9880   154.3390   482.9390 ha         1 8CW       0.134000
     69 H15          0.3280   141.6670   484.6730 ho         1 8CW       0.501000
     70 H17          1.1030   142.9480   487.1810 h2         1 8CW       0.107700
     71 H18         -0.8980   145.9030   487.5820 h1         1 8CW       0.085700
     72 H19         -2.9860   144.9550   485.9920 h1         1 8CW       0.021200
     73 H20         -2.9760   143.7640   487.3060 h1         1 8CW       0.021200
     74 H21         -2.9530   151.1940   486.1820 h1         1 8CW       0.059700
     75 H22         -0.8670   150.6260   486.9450 hc         1 8CW       0.067700
     76 H23         -0.3860   151.1580   485.3060 hc         1 8CW       0.067700
     77 H24         -0.4230   149.0130   483.4600 h1         1 8CW       0.052700
     78 H25          2.1940   149.7730   484.8790 ha         1 8CW       0.194000
     79 H30          5.3200   152.3880   480.7310 hc         1 8CW       0.057700
     80 H31          5.1160   152.7780   482.4200 hc         1 8CW       0.057700
     81 H35         -2.1090   150.5370   483.3340 hc         1 8CW       0.048700
     82 H36         -4.5280   150.1010   483.5360 hc         1 8CW       0.044367
     83 H37         -4.7770   151.6700   484.3340 hc         1 8CW       0.044367
     84 H38         -4.2770   151.6010   482.6320 hc         1 8CW       0.044367
     85 H39         -2.1580   153.0900   484.9580 ha         1 8CW       0.196000
     86 H40         -0.9680   145.2210   484.9340 h1         1 8CW       0.045700
     87 H41         -1.4780   142.8720   485.4940 h1         1 8CW       0.040700
     88 H42          3.0770   140.1740   490.3310 h5         1 8CW       0.039100
     89 H43          0.0160   136.9110   490.5790 hn         1 8CW       0.502000
     90 H44         -1.2670   137.3550   489.5040 hn         1 8CW       0.502000
     91 H45          1.8550   157.7010   482.5200 hn         1 8CW       0.167000
     92 H46         -5.0340   148.8950   487.8500 hn         1 8CW       0.436500
     93 H47         -4.1330   150.1790   487.6380 hn         1 8CW       0.436500
     94 H49         -1.9920   148.3260   487.2960 ho         1 8CW       0.485000
     95 H50         -1.3490   156.1760   484.2690 ho         1 8CW       0.478000
     96 H52          0.9120   146.1280   485.2350 ho         1 8CW       0.527000
     97 H2          -0.6330   152.7160   481.1110 hc         1 8CW       0.035367
     98 C25          2.7280   151.5640   480.1960 c3         1 8CW      -0.054900
     99 C28          1.1390   147.0030   482.7490 c3         1 8CW       0.130900
    100 N01         -0.2860   137.4350   489.7610 nv         1 8CW      -1.073900
    101 H27          2.3320   150.5490   480.0860 hc         1 8CW       0.042033
    102 H28          1.8960   152.2680   480.0760 hc         1 8CW       0.042033
    103 H29          3.4180   151.7220   479.3580 hc         1 8CW       0.042033
    104 H32          1.3920   145.9360   482.7320 h1         1 8CW       0.043700
    105 H33          0.3070   147.1660   482.0510 h1         1 8CW       0.043700
    106 H34          2.0120   147.5610   482.3860 h1         1 8CW       0.043700
    107 O44          4.2500   156.6300   478.3490 os         1 8CW      -0.324100
    108 H16         -2.2650   141.1680   486.7200 h5         1 8CW       0.077800
@<TRIPOS>BOND
     1     1    40 1   
     2     1    45 1   
     3     1    46 1   
     4     1    47 1   
     5     2     3 1   
     6     2    25 2   
     7     2    57 1   
     8     3     8 2   
     9     3    58 1   
    10     4     5 1   
    11     4     6 1   
    12     4    29 2   
    13     5    59 1   
    14     5    60 1   
    15     5    97 1   
    16     6     7 1   
    17     6    50 1   
    18     6    61 1   
    19     7    30 1   
    20     7    62 1   
    21     7    63 1   
    22     8    26 1   
    23     8    98 1   
    24     9    11 ar  
    25     9    32 ar  
    26     9   107 1   
    27    10    64 1   
    28    10    65 1   
    29    10    66 1   
    30    10   107 1   
    31    11    12 ar  
    32    11    67 1   
    33    12    13 ar  
    34    12    26 1   
    35    13    31 ar  
    36    13    68 1   
    37    14    34 1   
    38    14    69 1   
    39    15    16 ar  
    40    15    42 ar  
    41    15   100 1   
    42    16    35 ar  
    43    16    37 1   
    44    17    37 2   
    45    17    38 1   
    46    17   108 1   
    47    18    34 1   
    48    18    38 1   
    49    18    43 1   
    50    18    70 1   
    51    19    20 1   
    52    19    33 1   
    53    19    43 1   
    54    19    71 1   
    55    20    44 1   
    56    20    72 1   
    57    20    73 1   
    58    21    22 1   
    59    21    27 1   
    60    21    47 1   
    61    21    74 1   
    62    22    23 1   
    63    22    75 1   
    64    22    76 1   
    65    23    24 1   
    66    23    49 2   
    67    24    25 1   
    68    24    48 1   
    69    24    77 1   
    70    25    78 1   
    71    26    79 1   
    72    26    80 1   
    73    27    28 1   
    74    27    29 1   
    75    27    81 1   
    76    28    82 1   
    77    28    83 1   
    78    28    84 1   
    79    29    85 1   
    80    30    39 1   
    81    30    51 2   
    82    31    32 ar  
    83    31    39 1   
    84    32    56 1   
    85    33    34 1   
    86    33    54 1   
    87    33    86 1   
    88    34    87 1   
    89    35    38 1   
    90    35    41 ar  
    91    36    41 ar  
    92    36    42 ar  
    93    36    88 1   
    94    39    91 1   
    95    40    92 1   
    96    40    93 1   
    97    44    55 1   
    98    45    55 1   
    99    46    94 1   
   100    48    99 1   
   101    50    95 1   
   102    52    55 1   
   103    53    55 1   
   104    54    96 1   
   105    89   100 1   
   106    90   100 1   
   107    98   101 1   
   108    98   102 1   
   109    98   103 1   
   110    99   104 1   
   111    99   105 1   
   112    99   106 1   
@<TRIPOS>SUBSTRUCTURE
     1 8CW         1 TEMP              0 ****  ****    0 ROOT
