@<TRIPOS>MOLECULE
8CX
   56    58     1     0     0
SMALL
abcg2


@<TRIPOS>ATOM
      1 C1           0.0540     3.0310     1.2330 c3         1 8CX       0.158600
      2 O1          -0.8840     2.1160     0.7200 os         1 8CX      -0.461000
      3 C2           1.3490     2.2970     1.4990 c3         1 8CX       0.161800
      4 N2           1.9150     1.7580     0.2770 n7         1 8CX      -0.859400
      5 C3           3.1350     1.0210     0.5180 c3         1 8CX       0.131800
      6 C4           3.7290     0.4890    -0.7700 c3         1 8CX       0.240600
      7 F5           2.8170    -0.3990    -1.3480 f          1 8CX      -0.266000
      8 N1          -3.2260     3.0590    -1.6240 n7         1 8CX      -0.823400
      9 C11          5.0290    -0.2200    -0.5260 ca         1 8CX      -0.097300
     10 C12          5.0400    -1.5490    -0.1130 ca         1 8CX      -0.128000
     11 C13          6.2550    -2.1480     0.1560 ca         1 8CX       0.168000
     12 F13          6.2630    -3.4300     0.5580 f          1 8CX      -0.178000
     13 C14          7.4590    -1.4830     0.0320 ca         1 8CX      -0.144000
     14 C15          7.4340    -0.1590    -0.3820 ca         1 8CX      -0.086000
     15 C16          6.2290     0.4700    -0.6620 ca         1 8CX      -0.114000
     16 N1A         -5.0510    -0.6790     0.9800 nb         1 8CX      -0.758000
     17 C9          -2.2650     3.6130    -0.6720 c5         1 8CX       0.101800
     18 C2A         -3.8660    -0.8690     0.3960 ca         1 8CX       0.394300
     19 C10         -2.1760     2.6490     0.5440 c5         1 8CX       0.142300
     20 C3A         -3.6200    -1.9200    -0.4690 ca         1 8CX      -0.214000
     21 C17         -3.1590     1.5240     0.1850 c5         1 8CX      -0.089700
     22 C4A         -4.6500    -2.8250    -0.7510 ca         1 8CX       0.001700
     23 C5          -3.2610     1.6330    -1.3390 c5         1 8CX       0.135800
     24 C5A         -5.8740    -2.6260    -0.1470 ca         1 8CX      -0.234000
     25 C6A         -6.0350    -1.5330     0.7230 ca         1 8CX       0.600900
     26 N6A         -7.2150    -1.3360     1.3810 nv         1 8CX      -1.058900
     27 C7A         -2.7980     0.1400     0.7150 c3         1 8CX      -0.104700
     28 C8A         -4.4150    -3.9870    -1.6680 c3         1 8CX      -0.053800
     29 H1           0.2360     3.8560     0.5310 h1         1 8CX       0.031200
     30 H1A         -0.3080     3.4750     2.1710 h1         1 8CX       0.031200
     31 H2           2.0560     3.0090     1.9330 h1         1 8CX       0.036200
     32 H2A          1.1770     1.5240     2.2650 h1         1 8CX       0.036200
     33 HN2          1.2330     1.1410    -0.1460 hn         1 8CX       0.434000
     34 H3           3.8720     1.6940     0.9660 h1         1 8CX       0.042200
     35 H3A          3.0100     0.1860     1.2280 h1         1 8CX       0.042200
     36 H4           3.8710     1.3090    -1.4800 h1         1 8CX       0.075700
     37 HN1         -4.1410     3.4420    -1.4180 hn         1 8CX       0.395000
     38 H12          4.1250    -2.1150     0.0040 ha         1 8CX       0.142000
     39 H14          8.3920    -1.9870     0.2480 ha         1 8CX       0.133000
     40 H15          8.3640     0.3820    -0.4930 ha         1 8CX       0.119000
     41 H16          6.2230     1.5020    -0.9910 ha         1 8CX       0.120000
     42 H6          -1.2790     3.6740    -1.1430 h1         1 8CX       0.058200
     43 H2'A        -2.5510     4.6260    -0.3900 h1         1 8CX       0.058200
     44 H9          -2.4840     3.1490     1.4730 h1         1 8CX       0.039700
     45 H3AA        -2.6450    -2.0340    -0.9260 ha         1 8CX       0.124000
     46 H10         -4.1340     1.8020     0.6000 hc         1 8CX       0.064700
     47 H5          -4.1640     1.1770    -1.7460 h1         1 8CX       0.062200
     48 H5'A        -2.4030     1.1400    -1.8110 h1         1 8CX       0.062200
     49 H5A         -6.7030    -3.2980    -0.3350 ha         1 8CX       0.118000
     50 HN6A        -7.3690    -0.4140     1.7540 hn         1 8CX       0.468500
     51 HN6B        -8.0400    -1.7740     1.0060 hn         1 8CX       0.468500
     52 H7A         -2.6670     0.1830     1.8000 hc         1 8CX       0.063200
     53 H7AA        -1.8480    -0.1900     0.2920 hc         1 8CX       0.063200
     54 H8A         -3.8370    -4.7620    -1.1600 hc         1 8CX       0.047033
     55 H8AA        -5.3490    -4.4350    -2.0010 hc         1 8CX       0.047033
     56 H8AB        -3.8430    -3.6880    -2.5460 hc         1 8CX       0.047033
@<TRIPOS>BOND
     1     1     2 1   
     2     1     3 1   
     3     1    29 1   
     4     1    30 1   
     5     2    19 1   
     6     3     4 1   
     7     3    31 1   
     8     3    32 1   
     9     4     5 1   
    10     4    33 1   
    11     5     6 1   
    12     5    34 1   
    13     5    35 1   
    14     6     7 1   
    15     6     9 1   
    16     6    36 1   
    17     8    17 1   
    18     8    23 1   
    19     8    37 1   
    20     9    10 ar  
    21     9    15 ar  
    22    10    11 ar  
    23    10    38 1   
    24    11    12 1   
    25    11    13 ar  
    26    13    14 ar  
    27    13    39 1   
    28    14    15 ar  
    29    14    40 1   
    30    15    41 1   
    31    16    18 ar  
    32    16    25 ar  
    33    17    19 1   
    34    17    42 1   
    35    17    43 1   
    36    18    20 ar  
    37    18    27 1   
    38    19    21 1   
    39    19    44 1   
    40    20    22 ar  
    41    20    45 1   
    42    21    23 1   
    43    21    27 1   
    44    21    46 1   
    45    22    24 ar  
    46    22    28 1   
    47    23    47 1   
    48    23    48 1   
    49    24    25 ar  
    50    24    49 1   
    51    25    26 1   
    52    26    50 1   
    53    26    51 1   
    54    27    52 1   
    55    27    53 1   
    56    28    54 1   
    57    28    55 1   
    58    28    56 1   
@<TRIPOS>SUBSTRUCTURE
     1 8CX         1 TEMP              0 ****  ****    0 ROOT
