@<TRIPOS>MOLECULE
8CX
   56    58     1     0     0
SMALL
No Charge or Current Charge


@<TRIPOS>ATOM
      1 C1          -0.0270     3.3940     1.4310 c3         1 8CX       0.158600
      2 O1          -0.9570     2.4210     0.9020 os         1 8CX      -0.461000
      3 C2           1.3290     2.6870     1.6790 c3         1 8CX       0.161800
      4 N2           1.8490     2.0780     0.4340 n7         1 8CX      -0.859400
      5 C3           3.0130     1.1720     0.6040 c3         1 8CX       0.131800
      6 C4           3.4410     0.4970    -0.7300 c3         1 8CX       0.240600
      7 F5           2.4040    -0.2290    -1.2260 f          1 8CX      -0.266000
      8 N1          -2.9810     2.9750    -1.7520 n7         1 8CX      -0.823400
      9 C11          4.6870    -0.3730    -0.5590 ca         1 8CX      -0.097300
     10 C12          4.6320    -1.5670     0.1920 ca         1 8CX      -0.128000
     11 C13          5.7810    -2.3580     0.3460 ca         1 8CX       0.168000
     12 F13          5.7190    -3.4990     1.0660 f          1 8CX      -0.178000
     13 C14          6.9940    -1.9720    -0.2440 ca         1 8CX      -0.144000
     14 C15          7.0580    -0.7860    -0.9940 ca         1 8CX      -0.086000
     15 C16          5.9090     0.0100    -1.1510 ca         1 8CX      -0.114000
     16 N1A         -5.0380    -0.9130     1.1230 nb         1 8CX      -0.758000
     17 C9          -2.2870     3.7610    -0.6880 c5         1 8CX       0.101800
     18 C2A         -3.8210    -0.8230     0.5400 ca         1 8CX       0.394300
     19 C10         -2.3060     2.8740     0.6130 c5         1 8CX       0.142300
     20 C3A         -3.3790    -1.7350    -0.4380 ca         1 8CX      -0.214000
     21 C17         -3.1570     1.6410     0.1790 c5         1 8CX      -0.089700
     22 C4A         -4.2220    -2.7830    -0.8400 ca         1 8CX       0.001700
     23 C5          -2.8000     1.5690    -1.3260 c5         1 8CX       0.135800
     24 C5A         -5.4810    -2.8670    -0.2260 ca         1 8CX      -0.234000
     25 C6A         -5.8150    -1.9120     0.7360 ca         1 8CX       0.600900
     26 N6A         -6.9840    -1.8880     1.3770 nv         1 8CX      -1.058900
     27 C7A         -2.9340     0.3310     0.9860 c3         1 8CX      -0.104700
     28 C8A         -3.7850    -3.7890    -1.8910 c3         1 8CX      -0.053800
     29 H1           0.1210     4.2250     0.7290 h1         1 8CX       0.031200
     30 H1A         -0.3970     3.8080     2.3780 h1         1 8CX       0.031200
     31 H2           2.0470     3.4130     2.0820 h1         1 8CX       0.036200
     32 H2A          1.1740     1.9150     2.4460 h1         1 8CX       0.036200
     33 HN2          1.0730     1.5280     0.0380 hn         1 8CX       0.434000
     34 H3           3.8710     1.7330     0.9990 h1         1 8CX       0.042200
     35 H3A          2.7780     0.3840     1.3330 h1         1 8CX       0.042200
     36 H4           3.6610     1.2910    -1.4550 h1         1 8CX       0.075700
     37 HN1         -3.9860     3.1860    -1.7050 hn         1 8CX       0.395000
     38 H12          3.7010    -1.8850     0.6540 ha         1 8CX       0.142000
     39 H14          7.8790    -2.5910    -0.1200 ha         1 8CX       0.133000
     40 H15          7.9970    -0.4820    -1.4540 ha         1 8CX       0.119000
     41 H16          5.9720     0.9270    -1.7340 ha         1 8CX       0.120000
     42 H6          -1.2560     3.9770    -0.9990 h1         1 8CX       0.058200
     43 H2'A        -2.7860     4.7260    -0.5250 h1         1 8CX       0.058200
     44 H9          -2.7220     3.3890     1.4900 h1         1 8CX       0.039700
     45 H3AA        -2.3920    -1.6220    -0.8790 ha         1 8CX       0.124000
     46 H10         -4.2210     1.8830     0.2920 hc         1 8CX       0.064700
     47 H5          -3.4590     0.8870    -1.8810 h1         1 8CX       0.062200
     48 H5'A        -1.7610     1.2380    -1.4780 h1         1 8CX       0.062200
     49 H5A         -6.1800    -3.6560    -0.4870 ha         1 8CX       0.118000
     50 HN6A        -7.1810    -1.0200     1.8600 hn         1 8CX       0.468500
     51 HN6B        -7.7710    -2.3520     0.9380 hn         1 8CX       0.468500
     52 H7A         -3.1010     0.5300     2.0520 hc         1 8CX       0.063200
     53 H7AA        -1.8860     0.0180     0.9100 hc         1 8CX       0.063200
     54 H8A         -3.2330    -4.6180    -1.4330 hc         1 8CX       0.047033
     55 H8AA        -4.6460    -4.2110    -2.4230 hc         1 8CX       0.047033
     56 H8AB        -3.1320    -3.3230    -2.6390 hc         1 8CX       0.047033
@<TRIPOS>BOND
     1     1     2 1   
     2     1     3 1   
     3     1    29 1   
     4     1    30 1   
     5     2    19 1   
     6     3     4 1   
     7     3    31 1   
     8     3    32 1   
     9     4     5 1   
    10     4    33 1   
    11     5     6 1   
    12     5    34 1   
    13     5    35 1   
    14     6     7 1   
    15     6     9 1   
    16     6    36 1   
    17     8    17 1   
    18     8    23 1   
    19     8    37 1   
    20     9    10 ar  
    21     9    15 ar  
    22    10    11 ar  
    23    10    38 1   
    24    11    12 1   
    25    11    13 ar  
    26    13    14 ar  
    27    13    39 1   
    28    14    15 ar  
    29    14    40 1   
    30    15    41 1   
    31    16    18 ar  
    32    16    25 ar  
    33    17    19 1   
    34    17    42 1   
    35    17    43 1   
    36    18    20 ar  
    37    18    27 1   
    38    19    21 1   
    39    19    44 1   
    40    20    22 ar  
    41    20    45 1   
    42    21    23 1   
    43    21    27 1   
    44    21    46 1   
    45    22    24 ar  
    46    22    28 1   
    47    23    47 1   
    48    23    48 1   
    49    24    25 ar  
    50    24    49 1   
    51    25    26 1   
    52    26    50 1   
    53    26    51 1   
    54    27    52 1   
    55    27    53 1   
    56    28    54 1   
    57    28    55 1   
    58    28    56 1   
@<TRIPOS>SUBSTRUCTURE
     1 8CX         1 TEMP              0 ****  ****    0 ROOT
