@<TRIPOS>MOLECULE
8D1
   45    47     1     0     0
SMALL
bcc


@<TRIPOS>ATOM
      1 C11         -0.6250    -1.4420     0.4560 ce         1 8D1       0.590200
      2 C13          0.5590    -0.5710     0.3740 cc         1 8D1       0.075700
      3 C16          3.9400    -0.1390    -0.1050 ca         1 8D1       0.027800
      4 C17          4.4810    -1.3630    -0.4770 ca         1 8D1      -0.127000
      5 C18          5.8470    -1.4460    -0.7000 ca         1 8D1      -0.115000
      6 C19          6.6600    -0.3320    -0.5590 ca         1 8D1      -0.131000
      7 C20          6.1170     0.8970    -0.1900 ca         1 8D1      -0.064300
      8 C21          6.9910     2.1090    -0.0530 c3         1 8D1      -0.048800
      9 C22          4.7480     0.9840     0.0380 ca         1 8D1      -0.122000
     10 C24          0.6980     0.8270     0.5620 cc         1 8D1       0.469900
     11 C01         -4.0830     0.9390    -2.9360 c3         1 8D1       0.125700
     12 C03         -4.5800     0.2460    -0.7150 ca         1 8D1       0.145100
     13 C04         -5.6670     1.1110    -0.6190 ca         1 8D1      -0.217000
     14 C05         -6.4070     1.1610     0.5570 ca         1 8D1      -0.086000
     15 C06         -6.0730     0.3610     1.6360 ca         1 8D1      -0.168000
     16 C07         -4.9850    -0.4990     1.5290 ca         1 8D1      -0.079000
     17 C08         -4.2290    -0.5740     0.3680 ca         1 8D1      -0.131300
     18 C09         -3.0580    -1.5120     0.2750 c3         1 8D1       0.273100
     19 N10         -1.8060    -0.7790     0.2890 nu         1 8D1      -0.839200
     20 N12         -0.5880    -2.6940     0.7010 n2         1 8D1      -0.834100
     21 N14          1.7600    -1.0590     0.1150 nd         1 8D1      -0.463800
     22 N15          2.5570    -0.0320     0.1370 na         1 8D1       0.359800
     23 N23          1.9730     1.1280     0.4080 nd         1 8D1      -0.567800
     24 N25         -0.2650     1.7650     0.8060 nv         1 8D1      -0.903500
     25 H1           3.8540    -2.2360    -0.5890 ha         1 8D1       0.159000
     26 H2           6.2780    -2.3960    -0.9880 ha         1 8D1       0.137000
     27 H3           7.7260    -0.4190    -0.7330 ha         1 8D1       0.134000
     28 H4           7.2720     2.4980    -1.0330 hc         1 8D1       0.045700
     29 H5           6.4860     2.9100     0.4860 hc         1 8D1       0.045700
     30 H6           7.9130     1.8730     0.4770 hc         1 8D1       0.045700
     31 H7           4.3130     1.9290     0.3340 ha         1 8D1       0.159000
     32 H8          -3.9990     2.0040    -2.7060 h1         1 8D1       0.042033
     33 H9          -3.3440     0.6830    -3.6910 h1         1 8D1       0.042033
     34 H10         -5.0800     0.7420    -3.3380 h1         1 8D1       0.042033
     35 H11         -5.9500     1.7490    -1.4450 ha         1 8D1       0.135000
     36 H12         -7.2500     1.8360     0.6180 ha         1 8D1       0.129000
     37 H13         -6.6490     0.4010     2.5510 ha         1 8D1       0.135000
     38 H14         -4.7170    -1.1320     2.3670 ha         1 8D1       0.136000
     39 H15         -3.0660    -2.1820     1.1340 h1         1 8D1       0.058700
     40 H16         -3.1350    -2.1480    -0.6140 h1         1 8D1       0.058700
     41 H17         -1.7750     0.0290    -0.3160 hn         1 8D1       0.432800
     42 H18          0.3640    -2.9910     0.8850 hn         1 8D1       0.398400
     43 H19         -1.0390     1.4440     1.3670 hn         1 8D1       0.409800
     44 H20          0.0900     2.6500     1.1350 hn         1 8D1       0.409800
     45 O02         -3.8000     0.1340    -1.8090 os         1 8D1      -0.326900
@<TRIPOS>BOND
     1     1     2 1   
     2     1    19 1   
     3     1    20 2   
     4     2    10 1   
     5     2    21 2   
     6     3     4 ar  
     7     3     9 ar  
     8     3    22 1   
     9     4     5 ar  
    10     4    25 1   
    11     5     6 ar  
    12     5    26 1   
    13     6     7 ar  
    14     6    27 1   
    15     7     8 1   
    16     7     9 ar  
    17     8    28 1   
    18     8    29 1   
    19     8    30 1   
    20     9    31 1   
    21    10    23 2   
    22    10    24 1   
    23    11    32 1   
    24    11    33 1   
    25    11    34 1   
    26    11    45 1   
    27    12    13 ar  
    28    12    17 ar  
    29    12    45 1   
    30    13    14 ar  
    31    13    35 1   
    32    14    15 ar  
    33    14    36 1   
    34    15    16 ar  
    35    15    37 1   
    36    16    17 ar  
    37    16    38 1   
    38    17    18 1   
    39    18    19 1   
    40    18    39 1   
    41    18    40 1   
    42    19    41 1   
    43    20    42 1   
    44    21    22 1   
    45    22    23 1   
    46    24    43 1   
    47    24    44 1   
@<TRIPOS>SUBSTRUCTURE
     1 8D1         1 TEMP              0 ****  ****    0 ROOT
