@<TRIPOS>MOLECULE
8D1
   45    47     1     0     0
SMALL
No Charge or Current Charge


@<TRIPOS>ATOM
      1 C11         -0.6210    -1.3770     1.1360 ce         1 8D1       0.590200
      2 C13          0.5610    -0.5530     0.8130 cc         1 8D1       0.075700
      3 C16          3.7390     0.1210    -0.3250 ca         1 8D1       0.027800
      4 C17          4.0350    -0.6030    -1.4990 ca         1 8D1      -0.109000
      5 C18          5.3410    -0.6130    -2.0170 ca         1 8D1      -0.097000
      6 C19          6.3620     0.0980    -1.3650 ca         1 8D1      -0.113000
      7 C20          6.0840     0.8210    -0.1910 ca         1 8D1      -0.064300
      8 C21          7.1880     1.5940     0.5140 c3         1 8D1      -0.048800
      9 C22          4.7730     0.8320     0.3230 ca         1 8D1      -0.104000
     10 C24          0.6910     0.8350     1.0100 cc         1 8D1       0.469900
     11 C01         -3.8160    -0.0540    -3.2510 c3         1 8D1       0.148900
     12 C03         -4.4490    -0.0140    -0.8600 ca         1 8D1       0.145100
     13 C04         -5.4810     0.9260    -1.0880 ca         1 8D1      -0.199000
     14 C05         -6.2670     1.3890    -0.0200 ca         1 8D1      -0.068000
     15 C06         -6.0290     0.9190     1.2810 ca         1 8D1      -0.150000
     16 C07         -5.0070    -0.0140     1.5160 ca         1 8D1      -0.061000
     17 C08         -4.2130    -0.4860     0.4510 ca         1 8D1      -0.131300
     18 C09         -3.1130    -1.5000     0.7380 c3         1 8D1       0.273100
     19 N10         -1.8810    -0.8000     1.1180 nu         1 8D1      -0.894400
     20 N12         -0.5090    -2.6420     1.3170 n2         1 8D1      -0.834100
     21 N14          1.6840    -1.0320     0.3040 nd         1 8D1      -0.463800
     22 N15          2.4380     0.1330     0.1920 na         1 8D1       0.359800
     23 N23          1.8330     1.3050     0.6290 nd         1 8D1      -0.567800
     24 N25         -0.2130     1.6750     1.5670 nv         1 8D1      -1.013900
     25 H1           3.2500    -1.1540    -2.0130 ha         1 8D1       0.141000
     26 H2           5.5620    -1.1710    -2.9250 ha         1 8D1       0.119000
     27 H3           7.3700     0.0860    -1.7740 ha         1 8D1       0.116000
     28 H4           7.2230     2.6320     0.1640 hc         1 8D1       0.045700
     29 H5           7.0330     1.6110     1.6000 hc         1 8D1       0.045700
     30 H6           8.1720     1.1450     0.3310 hc         1 8D1       0.045700
     31 H7           4.5550     1.3920     1.2300 ha         1 8D1       0.141000
     32 H8          -3.6640     1.0300    -3.3380 h1         1 8D1       0.042033
     33 H9          -3.0820    -0.5520    -3.8960 h1         1 8D1       0.042033
     34 H10         -4.8180    -0.3010    -3.6230 h1         1 8D1       0.042033
     35 H11         -5.6870     1.3080    -2.0830 ha         1 8D1       0.117000
     36 H12         -7.0600     2.1120    -0.2000 ha         1 8D1       0.111000
     37 H13         -6.6380     1.2790     2.1080 ha         1 8D1       0.117000
     38 H14         -4.8290    -0.3700     2.5290 ha         1 8D1       0.118000
     39 H15         -3.4340    -2.1630     1.5530 h1         1 8D1       0.058700
     40 H16         -2.9410    -2.1330    -0.1440 h1         1 8D1       0.058700
     41 H17         -1.8590     0.1860     0.8660 hn         1 8D1       0.488000
     42 H18          0.4810    -2.8820     1.1570 hn         1 8D1       0.398400
     43 H19         -0.7640     1.3070     2.3390 hn         1 8D1       0.465000
     44 H20          0.1100     2.6280     1.7050 hn         1 8D1       0.465000
     45 O02         -3.6540    -0.4860    -1.8880 os         1 8D1      -0.350100
@<TRIPOS>BOND
     1     1     2 1   
     2     1    19 1   
     3     1    20 2   
     4     2    10 1   
     5     2    21 2   
     6     3     4 ar  
     7     3     9 ar  
     8     3    22 1   
     9     4     5 ar  
    10     4    25 1   
    11     5     6 ar  
    12     5    26 1   
    13     6     7 ar  
    14     6    27 1   
    15     7     8 1   
    16     7     9 ar  
    17     8    28 1   
    18     8    29 1   
    19     8    30 1   
    20     9    31 1   
    21    10    23 2   
    22    10    24 1   
    23    11    32 1   
    24    11    33 1   
    25    11    34 1   
    26    11    45 1   
    27    12    13 ar  
    28    12    17 ar  
    29    12    45 1   
    30    13    14 ar  
    31    13    35 1   
    32    14    15 ar  
    33    14    36 1   
    34    15    16 ar  
    35    15    37 1   
    36    16    17 ar  
    37    16    38 1   
    38    17    18 1   
    39    18    19 1   
    40    18    39 1   
    41    18    40 1   
    42    19    41 1   
    43    20    42 1   
    44    21    22 1   
    45    22    23 1   
    46    24    43 1   
    47    24    44 1   
@<TRIPOS>SUBSTRUCTURE
     1 8D1         1 TEMP              0 ****  ****    0 ROOT
