@<TRIPOS>MOLECULE
8D2
   30    32     1     0     0
SMALL
abcg2


@<TRIPOS>ATOM
      1 C4          13.7860    15.3500    10.5430 ca         1 8D2      -0.160000
      2 C14         15.8700    13.8350     9.4500 ca         1 8D2      -0.013000
      3 C5          13.5990    14.6510     9.3510 ca         1 8D2       0.181100
      4 C6          11.3150    15.2970     9.1870 c3         1 8D2       0.217900
      5 C11          8.5950    13.5720     7.1750 ca         1 8D2      -0.156000
      6 C7          10.1810    15.0750     8.2380 ca         1 8D2      -0.145300
      7 C8           9.6120    16.1300     7.5320 ca         1 8D2      -0.062000
      8 C9           8.5490    15.9240     6.6640 ca         1 8D2      -0.129000
      9 C10          8.0430    14.6440     6.4870 ca         1 8D2      -0.068000
     10 C12          9.6490    13.8090     8.0340 ca         1 8D2       0.200000
     11 C13         14.6530    13.8970     8.8120 ca         1 8D2      -0.137000
     12 N1          17.5000    15.3080    12.5570 nc         1 8D2      -0.171400
     13 N2          16.5840    15.9760    13.0280 nd         1 8D2      -0.173400
     14 C3          15.0210    15.2850    11.1700 ca         1 8D2      -0.102600
     15 C1          17.3310    14.4930    11.3540 c          1 8D2       0.636100
     16 C2          15.2570    16.0060    12.4220 c          1 8D2       0.625100
     17 O2          14.4370    16.6470    13.0160 o          1 8D2      -0.437100
     18 O3          12.4650    14.6420     8.6550 os         1 8D2      -0.329100
     19 F1          10.1780    12.7740     8.7050 f          1 8D2      -0.172000
     20 C15         16.0660    14.5340    10.6410 ca         1 8D2      -0.201600
     21 H1          12.9980    15.9430    10.9860 ha         1 8D2       0.144000
     22 H2          16.6700    13.2450     9.0250 ha         1 8D2       0.144000
     23 H3          11.5020    16.3700     9.2910 h1         1 8D2       0.053700
     24 H4          11.0860    14.8990    10.1810 h1         1 8D2       0.053700
     25 H6          10.0110    17.1280     7.6700 ha         1 8D2       0.119000
     26 H7           8.1200    16.7590     6.1280 ha         1 8D2       0.124000
     27 H8           7.2150    14.4730     5.8120 ha         1 8D2       0.122000
     28 H9          14.4950    13.3600     7.8860 ha         1 8D2       0.142000
     29 O1          18.2910    13.8420    11.0440 o          1 8D2      -0.442100
     30 H5           8.2130    12.5670     7.0490 ha         1 8D2       0.136000
@<TRIPOS>BOND
     1     1     3 ar  
     2     1    14 ar  
     3     1    21 1   
     4     2    11 ar  
     5     2    20 ar  
     6     2    22 1   
     7     3    11 ar  
     8     3    18 1   
     9     4     6 1   
    10     4    18 1   
    11     4    23 1   
    12     4    24 1   
    13     5     9 ar  
    14     5    10 ar  
    15     5    30 1   
    16     6     7 ar  
    17     6    10 ar  
    18     7     8 ar  
    19     7    25 1   
    20     8     9 ar  
    21     8    26 1   
    22     9    27 1   
    23    10    19 1   
    24    11    28 1   
    25    12    13 2   
    26    12    15 1   
    27    13    16 1   
    28    14    16 1   
    29    14    20 ar  
    30    15    20 1   
    31    15    29 2   
    32    16    17 2   
@<TRIPOS>SUBSTRUCTURE
     1 8D2         1 TEMP              0 ****  ****    0 ROOT
