@<TRIPOS>MOLECULE
8D2
   30    32     1     0     0
SMALL
No Charge or Current Charge


@<TRIPOS>ATOM
      1 C4          13.8070    15.2390    10.6270 ca         1 8D2      -0.160000
      2 C14         16.0030    14.0590     9.3270 ca         1 8D2      -0.013000
      3 C5          13.6420    14.6600     9.3500 ca         1 8D2       0.181100
      4 C6          11.2380    15.2110     9.2550 c3         1 8D2       0.217900
      5 C11          8.2660    13.6690     7.3690 ca         1 8D2      -0.156000
      6 C7          10.1000    15.0140     8.2630 ca         1 8D2      -0.145300
      7 C8           9.8250    16.0060     7.3000 ca         1 8D2      -0.062000
      8 C9           8.7760    15.8300     6.3790 ca         1 8D2      -0.129000
      9 C10          7.9950    14.6620     6.4130 ca         1 8D2      -0.068000
     10 C12          9.3130    13.8440     8.2880 ca         1 8D2       0.200000
     11 C13         14.7420    14.0740     8.7090 ca         1 8D2      -0.137000
     12 N1          17.5390    15.2390    12.5500 nc         1 8D2      -0.171400
     13 N2          16.5690    15.8170    13.2410 nd         1 8D2      -0.173400
     14 C3          15.0730    15.2290    11.2590 ca         1 8D2      -0.102600
     15 C1          17.4970    14.6410    11.2960 c          1 8D2       0.636100
     16 C2          15.2770    15.8440    12.6310 c          1 8D2       0.625100
     17 O2          14.3460    16.3670    13.2300 o          1 8D2      -0.437100
     18 O3          12.4300    14.6420     8.6900 os         1 8D2      -0.329100
     19 F1           9.5580    12.8750     9.1990 f          1 8D2      -0.172000
     20 C15         16.1680    14.6370    10.6030 ca         1 8D2      -0.201600
     21 H1          12.9660    15.6970    11.1400 ha         1 8D2       0.144000
     22 H2          16.8450    13.5990     8.8130 ha         1 8D2       0.144000
     23 H3          11.3750    16.2830     9.4450 h1         1 8D2       0.053700
     24 H4          10.9900    14.7270    10.2080 h1         1 8D2       0.053700
     25 H6          10.4250    16.9130     7.2620 ha         1 8D2       0.119000
     26 H7           8.5700    16.5990     5.6390 ha         1 8D2       0.124000
     27 H8           7.1840    14.5270     5.7000 ha         1 8D2       0.122000
     28 H9          14.6160    13.6280     7.7260 ha         1 8D2       0.142000
     29 O1          18.4910    14.1440    10.7830 o          1 8D2      -0.442100
     30 H5           7.6670    12.7620     7.4000 ha         1 8D2       0.136000
@<TRIPOS>BOND
     1     1     3 ar  
     2     1    14 ar  
     3     1    21 1   
     4     2    11 ar  
     5     2    20 ar  
     6     2    22 1   
     7     3    11 ar  
     8     3    18 1   
     9     4     6 1   
    10     4    18 1   
    11     4    23 1   
    12     4    24 1   
    13     5     9 ar  
    14     5    10 ar  
    15     5    30 1   
    16     6     7 ar  
    17     6    10 ar  
    18     7     8 ar  
    19     7    25 1   
    20     8     9 ar  
    21     8    26 1   
    22     9    27 1   
    23    10    19 1   
    24    11    28 1   
    25    12    13 2   
    26    12    15 1   
    27    13    16 1   
    28    14    16 1   
    29    14    20 ar  
    30    15    20 1   
    31    15    29 2   
    32    16    17 2   
@<TRIPOS>SUBSTRUCTURE
     1 8D2         1 TEMP              0 ****  ****    0 ROOT
