@<TRIPOS>MOLECULE
8D3
   65    67     1     0     0
SMALL
No Charge or Current Charge


@<TRIPOS>ATOM
      1 C1         -39.8900  -164.5490   305.9640 ca         1 8D3       0.167100
      2 O1         -38.9570  -165.4120   305.4820 oh         1 8D3      -0.549100
      3 O2         -41.8420  -163.7300   308.9960 os         1 8D3      -0.361100
      4 C2         -40.2040  -163.4310   305.1780 ca         1 8D3      -0.174000
      5 C3         -41.1060  -162.4430   305.6290 ca         1 8D3      -0.001300
      6 C5         -40.4870  -164.7440   307.2320 ca         1 8D3      -0.237300
      7 C6         -41.2650  -164.5910   309.9940 c6         1 8D3       0.194000
      8 C4         -41.6380  -162.5990   306.9240 ca         1 8D3      -0.178000
      9 C10        -40.4130  -168.4350   309.6720 c2         1 8D3      -0.225200
     10 C11        -40.3500  -168.5720   308.3350 c2         1 8D3      -0.117400
     11 C12        -40.4210  -167.3710   307.3870 c6         1 8D3      -0.043200
     12 C13        -40.2170  -165.9990   308.1110 c6         1 8D3       0.002600
     13 C14        -42.2650  -164.5600   311.1850 c3         1 8D3      -0.098100
     14 C15        -39.9300  -163.9300   310.4610 c3         1 8D3      -0.098100
     15 C16        -40.2250  -169.9180   307.6480 c3         1 8D3      -0.052900
     16 C17        -41.4920  -161.1990   304.7810 c3         1 8D3       0.000300
     17 C18        -43.0480  -161.0990   304.6460 c3         1 8D3      -0.064400
     18 C19        -40.8560  -161.2110   303.3580 c3         1 8D3      -0.083600
     19 C20        -40.9730  -159.9280   305.5070 c3         1 8D3      -0.083600
     20 C21        -43.7480  -162.3380   304.0290 c3         1 8D3      -0.075400
     21 C22        -45.2860  -162.1990   303.9870 c3         1 8D3      -0.073400
     22 C23        -45.9870  -163.4340   303.3790 c3         1 8D3      -0.077400
     23 C24        -47.5270  -163.2950   303.3430 c3         1 8D3      -0.075400
     24 C25        -48.2500  -164.4990   302.7000 c3         1 8D3       0.109600
     25 C7         -41.3220  -163.7080   307.7200 ca         1 8D3       0.178100
     26 C8         -41.1090  -166.0130   309.3850 c6         1 8D3      -0.084700
     27 C9         -40.5940  -167.0970   310.3730 c6         1 8D3      -0.029200
     28 Br1        -48.0610  -166.1680   303.7800 br         1 8D3      -0.302000
     29 H1         -38.7440  -166.0450   306.1960 ho         1 8D3       0.464000
     30 H2         -39.7200  -163.3500   304.2110 ha         1 8D3       0.131000
     31 H3         -42.2990  -161.8460   307.3390 ha         1 8D3       0.127000
     32 H4         -40.3640  -169.3100   310.3230 ha         1 8D3       0.173000
     33 H5         -39.6610  -167.5170   306.6110 hc         1 8D3       0.055200
     34 H6         -41.3900  -167.3780   306.8700 hc         1 8D3       0.055200
     35 H7         -39.1680  -165.9490   308.4350 hc         1 8D3       0.049700
     36 H8         -41.8680  -165.0840   312.0620 hc         1 8D3       0.047700
     37 H9         -42.4830  -163.5300   311.4940 hc         1 8D3       0.047700
     38 H10        -43.2180  -165.0330   310.9180 hc         1 8D3       0.047700
     39 H11        -39.4770  -164.4810   311.2920 hc         1 8D3       0.047700
     40 H12        -39.1880  -163.8790   309.6560 hc         1 8D3       0.047700
     41 H13        -40.1000  -162.9030   310.8070 hc         1 8D3       0.047700
     42 H14        -40.2020  -170.7430   308.3700 hc         1 8D3       0.041700
     43 H15        -41.0700  -170.0950   306.9720 hc         1 8D3       0.041700
     44 H16        -39.3040  -169.9750   307.0550 hc         1 8D3       0.041700
     45 H17        -43.2990  -160.2200   304.0390 hc         1 8D3       0.039200
     46 H18        -43.4900  -160.9090   305.6320 hc         1 8D3       0.039200
     47 H19        -39.7620  -161.1600   303.4150 hc         1 8D3       0.037200
     48 H20        -41.1250  -162.1160   302.8010 hc         1 8D3       0.037200
     49 H21        -41.1940  -160.3480   302.7720 hc         1 8D3       0.037200
     50 H22        -41.4340  -159.8100   306.4940 hc         1 8D3       0.037200
     51 H23        -39.8860  -159.9780   305.6470 hc         1 8D3       0.037200
     52 H24        -41.1970  -159.0240   304.9260 hc         1 8D3       0.037200
     53 H25        -43.4910  -163.2340   304.6080 hc         1 8D3       0.045200
     54 H26        -43.3830  -162.5010   303.0080 hc         1 8D3       0.045200
     55 H27        -45.5510  -161.3090   303.4030 hc         1 8D3       0.036200
     56 H28        -45.6610  -162.0380   305.0050 hc         1 8D3       0.036200
     57 H29        -45.7110  -164.3210   303.9630 hc         1 8D3       0.047700
     58 H30        -45.6150  -163.5940   302.3590 hc         1 8D3       0.047700
     59 H31        -47.7880  -162.3940   302.7750 hc         1 8D3       0.050700
     60 H32        -47.9090  -163.1500   304.3610 hc         1 8D3       0.050700
     61 H33        -49.3260  -164.3000   302.6210 h1         1 8D3       0.070700
     62 H34        -47.8480  -164.7110   301.7010 h1         1 8D3       0.070700
     63 H35        -42.1170  -166.3210   309.0720 hc         1 8D3       0.068700
     64 H36        -39.6390  -166.7970   310.8240 hc         1 8D3       0.049200
     65 H37        -41.3080  -167.2240   311.1980 hc         1 8D3       0.049200
@<TRIPOS>BOND
     1     1     2 1   
     2     1     4 ar  
     3     1     6 ar  
     4     2    29 1   
     5     3     7 1   
     6     3    25 1   
     7     4     5 ar  
     8     4    30 1   
     9     5     8 ar  
    10     5    16 1   
    11     6    12 1   
    12     6    25 ar  
    13     7    13 1   
    14     7    14 1   
    15     7    26 1   
    16     8    25 ar  
    17     8    31 1   
    18     9    10 2   
    19     9    27 1   
    20     9    32 1   
    21    10    11 1   
    22    10    15 1   
    23    11    12 1   
    24    11    33 1   
    25    11    34 1   
    26    12    26 1   
    27    12    35 1   
    28    13    36 1   
    29    13    37 1   
    30    13    38 1   
    31    14    39 1   
    32    14    40 1   
    33    14    41 1   
    34    15    42 1   
    35    15    43 1   
    36    15    44 1   
    37    16    17 1   
    38    16    18 1   
    39    16    19 1   
    40    17    20 1   
    41    17    45 1   
    42    17    46 1   
    43    18    47 1   
    44    18    48 1   
    45    18    49 1   
    46    19    50 1   
    47    19    51 1   
    48    19    52 1   
    49    20    21 1   
    50    20    53 1   
    51    20    54 1   
    52    21    22 1   
    53    21    55 1   
    54    21    56 1   
    55    22    23 1   
    56    22    57 1   
    57    22    58 1   
    58    23    24 1   
    59    23    59 1   
    60    23    60 1   
    61    24    28 1   
    62    24    61 1   
    63    24    62 1   
    64    26    27 1   
    65    26    63 1   
    66    27    64 1   
    67    27    65 1   
@<TRIPOS>SUBSTRUCTURE
     1 8D3         1 TEMP              0 ****  ****    0 ROOT
