@<TRIPOS>MOLECULE
8D3
   65    67     1     0     0
SMALL
abcg2


@<TRIPOS>ATOM
      1 C1         -39.9210  -164.4870   306.0150 ca         1 8D3       0.167100
      2 O1         -39.0190  -165.3710   305.4760 oh         1 8D3      -0.549100
      3 O2         -41.8090  -163.6550   309.0240 os         1 8D3      -0.361100
      4 C2         -40.2260  -163.3780   305.2290 ca         1 8D3      -0.174000
      5 C3         -41.0950  -162.3950   305.6930 ca         1 8D3      -0.001300
      6 C5         -40.5010  -164.6920   307.2720 ca         1 8D3      -0.237300
      7 C6         -41.1760  -164.5320   310.0040 c6         1 8D3       0.194000
      8 C4         -41.5990  -162.5300   306.9860 ca         1 8D3      -0.178000
      9 C10        -40.5710  -168.3540   309.5530 c2         1 8D3      -0.225200
     10 C11        -40.6130  -168.4610   308.2240 c2         1 8D3      -0.117400
     11 C12        -40.6820  -167.2430   307.3350 c6         1 8D3      -0.043200
     12 C13        -40.2990  -165.9530   308.0830 c6         1 8D3       0.002600
     13 C14        -42.1110  -164.4820   311.2020 c3         1 8D3      -0.098100
     14 C15        -39.8050  -163.9650   310.3630 c3         1 8D3      -0.098100
     15 C16        -40.5840  -169.7840   307.5170 c3         1 8D3      -0.052900
     16 C17        -41.4960  -161.1850   304.8460 c3         1 8D3       0.000300
     17 C18        -43.0380  -161.1560   304.6880 c3         1 8D3      -0.064400
     18 C19        -40.8370  -161.1960   303.4610 c3         1 8D3      -0.083600
     19 C20        -41.0620  -159.8920   305.5620 c3         1 8D3      -0.083600
     20 C21        -43.6660  -162.3940   304.0530 c3         1 8D3      -0.075400
     21 C22        -45.1910  -162.3270   304.0220 c3         1 8D3      -0.073400
     22 C23        -45.8320  -163.5720   303.4150 c3         1 8D3      -0.077400
     23 C24        -47.3560  -163.5130   303.4150 c3         1 8D3      -0.075400
     24 C25        -48.0400  -164.6750   302.7340 c3         1 8D3       0.109600
     25 C7         -41.2910  -163.6430   307.7600 ca         1 8D3       0.178100
     26 C8         -41.1290  -165.9260   309.3750 c6         1 8D3      -0.084700
     27 C9         -40.6640  -167.0510   310.2970 c6         1 8D3      -0.029200
     28 BR1        -47.7530  -166.4020   303.6990 br         1 8D3      -0.302000
     29 H1         -38.7030  -165.9830   306.1520 ho         1 8D3       0.464000
     30 H2         -39.7590  -163.3100   304.2570 ha         1 8D3       0.131000
     31 H3         -42.2380  -161.7740   307.4210 ha         1 8D3       0.127000
     32 H4         -40.4870  -169.2550   310.1540 ha         1 8D3       0.173000
     33 H5         -40.0390  -167.4160   306.4700 hc         1 8D3       0.055200
     34 H6         -41.6950  -167.1360   306.9270 hc         1 8D3       0.055200
     35 H7         -39.2390  -166.0360   308.3610 hc         1 8D3       0.049700
     36 H8         -41.6940  -165.0420   312.0380 hc         1 8D3       0.047700
     37 H9         -42.2490  -163.4470   311.5190 hc         1 8D3       0.047700
     38 H10        -43.0840  -164.9050   310.9480 hc         1 8D3       0.047700
     39 H11        -39.3300  -164.5820   311.1270 hc         1 8D3       0.047700
     40 H12        -39.1430  -163.9220   309.4990 hc         1 8D3       0.047700
     41 H13        -39.9190  -162.9560   310.7610 hc         1 8D3       0.047700
     42 H14        -40.5590  -170.6160   308.2210 hc         1 8D3       0.041700
     43 H15        -41.4660  -169.9000   306.8780 hc         1 8D3       0.041700
     44 H16        -39.7120  -169.8570   306.8600 hc         1 8D3       0.041700
     45 H17        -43.2970  -160.2720   304.0960 hc         1 8D3       0.039200
     46 H18        -43.4840  -161.0040   305.6750 hc         1 8D3       0.039200
     47 H19        -39.7500  -161.1330   303.5410 hc         1 8D3       0.037200
     48 H20        -41.0810  -162.0930   302.8910 hc         1 8D3       0.037200
     49 H21        -41.1820  -160.3320   302.8900 hc         1 8D3       0.037200
     50 H22        -41.5330  -159.7990   306.5420 hc         1 8D3       0.037200
     51 H23        -39.9790  -159.8730   305.7010 hc         1 8D3       0.037200
     52 H24        -41.3460  -159.0210   304.9670 hc         1 8D3       0.037200
     53 H25        -43.3590  -163.2840   304.6120 hc         1 8D3       0.045200
     54 H26        -43.2930  -162.5260   303.0340 hc         1 8D3       0.045200
     55 H27        -45.5060  -161.4430   303.4570 hc         1 8D3       0.036200
     56 H28        -45.5660  -162.1890   305.0420 hc         1 8D3       0.036200
     57 H29        -45.5020  -164.4540   303.9720 hc         1 8D3       0.047700
     58 H30        -45.4780  -163.7030   302.3870 hc         1 8D3       0.047700
     59 H31        -47.6820  -162.6180   302.8700 hc         1 8D3       0.050700
     60 H32        -47.7330  -163.4070   304.4360 hc         1 8D3       0.050700
     61 H33        -49.1200  -164.5700   302.7090 h1         1 8D3       0.070700
     62 H34        -47.6570  -164.8630   301.7350 h1         1 8D3       0.070700
     63 H35        -42.1640  -166.1440   309.0900 hc         1 8D3       0.068700
     64 H36        -39.6960  -166.8040   310.7480 hc         1 8D3       0.049200
     65 H37        -41.3630  -167.1660   311.1300 hc         1 8D3       0.049200
@<TRIPOS>BOND
     1     1     2 1   
     2     1     4 ar  
     3     1     6 ar  
     4     2    29 1   
     5     3     7 1   
     6     3    25 1   
     7     4     5 ar  
     8     4    30 1   
     9     5     8 ar  
    10     5    16 1   
    11     6    12 1   
    12     6    25 ar  
    13     7    13 1   
    14     7    14 1   
    15     7    26 1   
    16     8    25 ar  
    17     8    31 1   
    18     9    10 2   
    19     9    27 1   
    20     9    32 1   
    21    10    11 1   
    22    10    15 1   
    23    11    12 1   
    24    11    33 1   
    25    11    34 1   
    26    12    26 1   
    27    12    35 1   
    28    13    36 1   
    29    13    37 1   
    30    13    38 1   
    31    14    39 1   
    32    14    40 1   
    33    14    41 1   
    34    15    42 1   
    35    15    43 1   
    36    15    44 1   
    37    16    17 1   
    38    16    18 1   
    39    16    19 1   
    40    17    20 1   
    41    17    45 1   
    42    17    46 1   
    43    18    47 1   
    44    18    48 1   
    45    18    49 1   
    46    19    50 1   
    47    19    51 1   
    48    19    52 1   
    49    20    21 1   
    50    20    53 1   
    51    20    54 1   
    52    21    22 1   
    53    21    55 1   
    54    21    56 1   
    55    22    23 1   
    56    22    57 1   
    57    22    58 1   
    58    23    24 1   
    59    23    59 1   
    60    23    60 1   
    61    24    28 1   
    62    24    61 1   
    63    24    62 1   
    64    26    27 1   
    65    26    63 1   
    66    27    64 1   
    67    27    65 1   
@<TRIPOS>SUBSTRUCTURE
     1 8D3         1 TEMP              0 ****  ****    0 ROOT
