@<TRIPOS>MOLECULE
8D4
   20    21     1     0     0
SMALL
No Charge or Current Charge


@<TRIPOS>ATOM
      1 O2          -2.9930    -1.8670     0.2040 o          1 8D4      -0.705000
      2 C1          -1.8730    -1.4220    -0.0290 c          1 8D4       0.632500
      3 O1          -0.9830    -2.1600    -0.4330 o          1 8D4      -0.705000
      4 C2          -1.6470     0.0780     0.0860 cc         1 8D4       0.200500
      5 C3          -0.4540     0.7660    -0.0470 cd         1 8D4      -0.157000
      6 N3          -0.8530     2.0910     0.0150 na         1 8D4      -0.037200
      7 N2          -2.2030     2.1920     0.2130 nd         1 8D4      -0.260800
      8 N1          -2.6770     0.9790     0.2520 nc         1 8D4      -0.343000
      9 C4           0.9660     0.3440    -0.0170 ca         1 8D4       0.026000
     10 C9           1.9440     1.1780    -0.6030 ca         1 8D4      -0.081500
     11 C8           3.3060     0.8290    -0.5700 ca         1 8D4      -0.125500
     12 C7           3.7140    -0.3490     0.0720 ca         1 8D4      -0.124000
     13 C6           2.7600    -1.1710     0.6890 ca         1 8D4      -0.125500
     14 C5           1.3970    -0.8230     0.6520 ca         1 8D4      -0.081500
     15 H2          -0.2610     2.9160    -0.0160 hn         1 8D4       0.345000
     16 H3           1.6500     2.0930    -1.1120 ha         1 8D4       0.124500
     17 H4           4.0440     1.4750    -1.0410 ha         1 8D4       0.098500
     18 H5           4.7680    -0.6180     0.1020 ha         1 8D4       0.094000
     19 H6           3.0750    -2.0720     1.2100 ha         1 8D4       0.098500
     20 H7           0.6900    -1.4450     1.1900 ha         1 8D4       0.124500
@<TRIPOS>BOND
     1     1     2 1   
     2     2     3 1   
     3     2     4 1   
     4     4     5 2   
     5     4     8 1   
     6     5     6 1   
     7     5     9 1   
     8     6     7 1   
     9     6    15 1   
    10     7     8 2   
    11     9    10 ar  
    12     9    14 ar  
    13    10    11 ar  
    14    10    16 1   
    15    11    12 ar  
    16    11    17 1   
    17    12    13 ar  
    18    12    18 1   
    19    13    14 ar  
    20    13    19 1   
    21    14    20 1   
@<TRIPOS>SUBSTRUCTURE
     1 8D4         1 TEMP              0 ****  ****    0 ROOT
