@<TRIPOS>MOLECULE
8D4
   20    21     1     0     0
SMALL
bcc


@<TRIPOS>ATOM
      1 O2          -3.1380    -1.7360    -0.1310 o          1 8D4      -0.810300
      2 C1          -1.9400    -1.4090    -0.1910 c          1 8D4       0.843100
      3 O1          -0.9590    -2.1440    -0.4060 o          1 8D4      -0.810300
      4 C2          -1.6410     0.0540     0.0120 cc         1 8D4       0.265800
      5 C3          -0.4290     0.7200     0.0900 cd         1 8D4      -0.171600
      6 N3          -0.7960     2.0090     0.2170 na         1 8D4      -0.037600
      7 N2          -2.1070     2.1550     0.2210 nd         1 8D4      -0.260800
      8 N1          -2.6220     0.9840     0.0960 nc         1 8D4      -0.343000
      9 C4           0.9830     0.3350     0.0590 ca         1 8D4       0.026000
     10 C9           1.8900     1.0990    -0.6760 ca         1 8D4      -0.099500
     11 C8           3.2400     0.7770    -0.6830 ca         1 8D4      -0.143500
     12 C7           3.7000    -0.3090     0.0470 ca         1 8D4      -0.142000
     13 C6           2.8010    -1.0710     0.7850 ca         1 8D4      -0.143500
     14 C5           1.4520    -0.7550     0.7910 ca         1 8D4      -0.099500
     15 H2          -0.2000     2.8160     0.3390 hn         1 8D4       0.294700
     16 H3           1.5420     1.9420    -1.2600 ha         1 8D4       0.142500
     17 H4           3.9290     1.3750    -1.2660 ha         1 8D4       0.116500
     18 H5           4.7520    -0.5620     0.0430 ha         1 8D4       0.112000
     19 H6           3.1540    -1.9170     1.3600 ha         1 8D4       0.116500
     20 H7           0.7620    -1.3490     1.3710 ha         1 8D4       0.142500
@<TRIPOS>BOND
     1     1     2 1   
     2     2     3 1   
     3     2     4 1   
     4     4     5 2   
     5     4     8 1   
     6     5     6 1   
     7     5     9 1   
     8     6     7 1   
     9     6    15 1   
    10     7     8 2   
    11     9    10 ar  
    12     9    14 ar  
    13    10    11 ar  
    14    10    16 1   
    15    11    12 ar  
    16    11    17 1   
    17    12    13 ar  
    18    12    18 1   
    19    13    14 ar  
    20    13    19 1   
    21    14    20 1   
@<TRIPOS>SUBSTRUCTURE
     1 8D4         1 TEMP              0 ****  ****    0 ROOT
