@<TRIPOS>MOLECULE
8D6
   23    24     1     0     0
SMALL
abcg2


@<TRIPOS>ATOM
      1 C10         -1.7350    -0.3290     0.0870 ca         1 8D6       0.043000
      2 C15         -2.5990    -1.1830    -0.5990 ca         1 8D6      -0.157000
      3 N01          4.2780    -0.9270    -0.1280 nt         1 8D6      -0.610000
      4 O03          3.6460     1.1420     0.5320 o          1 8D6      -0.566100
      5 C04          1.9620    -0.4620     0.2130 cc         1 8D6      -0.250600
      6 C05          0.7970     0.2740     0.1530 cd         1 8D6       0.131000
      7 CL06         0.6980     1.9720    -0.0200 cl         1 8D6      -0.135000
      8 C07         -0.3050    -0.6170     0.1520 cd         1 8D6      -0.123000
      9 C08          0.2450    -1.8830     0.2280 cc         1 8D6      -0.147000
     10 N09          1.5830    -1.7750     0.2580 na         1 8D6      -0.085000
     11 C11         -2.3110     0.7750     0.7160 ca         1 8D6      -0.157000
     12 C12         -3.6800     0.9650     0.6260 ca         1 8D6       0.333400
     13 N13         -4.5010     0.1500    -0.0260 nb         1 8D6      -0.665000
     14 C14         -3.9550    -0.9060    -0.6200 ca         1 8D6       0.333400
     15 H1          -2.2230    -2.0520    -1.1240 ha         1 8D6       0.125000
     16 H2           4.0350    -1.7670    -0.6250 hn         1 8D6       0.310000
     17 H3           5.2460    -0.6500    -0.1760 hn         1 8D6       0.310000
     18 H4          -0.2410    -2.8420     0.3000 h4         1 8D6       0.156000
     19 H5           2.2040    -2.5560     0.4060 hn         1 8D6       0.353000
     20 H6          -1.7180     1.4720     1.2900 ha         1 8D6       0.125000
     21 H7          -4.1340     1.8200     1.1150 h4         1 8D6       0.017600
     22 H8          -4.6310    -1.5690    -1.1490 h4         1 8D6       0.017600
     23 C02          3.3600    -0.0020     0.2140 c          1 8D6       0.642700
@<TRIPOS>BOND
     1     1     2 ar  
     2     1     8 1   
     3     1    11 ar  
     4     2    14 ar  
     5     2    15 1   
     6     3    16 1   
     7     3    17 1   
     8     3    23 1   
     9     4    23 2   
    10     5     6 2   
    11     5    10 1   
    12     5    23 1   
    13     6     7 1   
    14     6     8 1   
    15     8     9 2   
    16     9    10 1   
    17     9    18 1   
    18    10    19 1   
    19    11    12 ar  
    20    11    20 1   
    21    12    13 ar  
    22    12    21 1   
    23    13    14 ar  
    24    14    22 1   
@<TRIPOS>SUBSTRUCTURE
     1 8D6         1 TEMP              0 ****  ****    0 ROOT
