@<TRIPOS>MOLECULE
8D6
   23    24     1     0     0
SMALL
No Charge or Current Charge


@<TRIPOS>ATOM
      1 C10         -1.7430    -0.3400     0.1030 ca         1 8D6       0.043000
      2 C15         -2.6610    -1.2600    -0.4460 ca         1 8D6      -0.157000
      3 N01          4.3710    -0.8450     0.0710 nt         1 8D6      -0.610000
      4 O03          3.6460     1.2380     0.2730 o          1 8D6      -0.566100
      5 C04          1.9990    -0.5090     0.1270 cc         1 8D6      -0.250600
      6 C05          0.8330     0.2220     0.1880 cd         1 8D6       0.131000
      7 Cl06         0.7140     1.9590     0.2280 cl         1 8D6      -0.135000
      8 C07         -0.2920    -0.6590     0.1320 cd         1 8D6      -0.123000
      9 C08          0.2000    -1.9310    -0.0340 cc         1 8D6      -0.147000
     10 N09          1.5890    -1.8430     0.0040 na         1 8D6      -0.085000
     11 C11         -2.2910     0.8440     0.6400 ca         1 8D6      -0.157000
     12 C12         -3.6760     1.0650     0.5830 ca         1 8D6       0.333400
     13 N13         -4.5430     0.1850     0.0360 nb         1 8D6      -0.665000
     14 C14         -4.0320    -0.9600    -0.4660 ca         1 8D6       0.333400
     15 H1          -2.3290    -2.1980    -0.8790 ha         1 8D6       0.125000
     16 H2           4.1730    -1.8280    -0.0190 hn         1 8D6       0.310000
     17 H3           5.3250    -0.5170     0.0920 hn         1 8D6       0.310000
     18 H4          -0.3080    -2.8810    -0.1480 h4         1 8D6       0.156000
     19 H5           2.2090    -2.6450    -0.0700 hn         1 8D6       0.353000
     20 H6          -1.6810     1.5820     1.1420 ha         1 8D6       0.125000
     21 H7          -4.1090     1.9730     1.0020 h4         1 8D6       0.017600
     22 H8          -4.7450    -1.6600    -0.9000 h4         1 8D6       0.017600
     23 C02          3.3710     0.0560     0.1640 c          1 8D6       0.642700
@<TRIPOS>BOND
     1     1     2 ar  
     2     1     8 1   
     3     1    11 ar  
     4     2    14 ar  
     5     2    15 1   
     6     3    16 1   
     7     3    17 1   
     8     3    23 1   
     9     4    23 2   
    10     5     6 2   
    11     5    10 1   
    12     5    23 1   
    13     6     7 1   
    14     6     8 1   
    15     8     9 2   
    16     9    10 1   
    17     9    18 1   
    18    10    19 1   
    19    11    12 ar  
    20    11    20 1   
    21    12    13 ar  
    22    12    21 1   
    23    13    14 ar  
    24    14    22 1   
@<TRIPOS>SUBSTRUCTURE
     1 8D6         1 TEMP              0 ****  ****    0 ROOT
