@<TRIPOS>MOLECULE
8D7
   49    49     1     0     0
SMALL
No Charge or Current Charge


@<TRIPOS>ATOM
      1 C16          1.3290    -0.2800     0.0550 ca         1 8D7      -0.142000
      2 C10          1.6700     2.2380     1.2420 ca         1 8D7      -0.072000
      3 C8           0.2070     0.5250     0.3120 ca         1 8D7       0.151100
      4 C7          -2.2450     0.7730     0.1930 c3         1 8D7       0.165600
      5 C6          -4.5180    -3.8050     0.6390 c3         1 8D7      -0.089600
      6 C5          -4.5900    -2.4330    -0.0600 c3         1 8D7      -0.076400
      7 O1           4.3600    -1.2370     1.3260 oh         1 8D7      -0.651000
      8 C13          3.8310    -0.7420     0.0910 c3         1 8D7       0.214600
      9 C14          4.9490    -0.0280    -0.7050 c3         1 8D7      -0.115400
     10 C15          6.0530    -0.9850    -1.1970 c3         1 8D7       0.148800
     11 N            7.0650    -0.2690    -1.9960 n8         1 8D7      -0.994200
     12 C12          2.6280     0.1600     0.3810 ca         1 8D7      -0.072300
     13 C11          2.7880     1.4270     0.9820 ca         1 8D7      -0.138000
     14 C9           0.3810     1.7920     0.9090 ca         1 8D7      -0.199000
     15 O           -1.0330     0.0320    -0.0350 os         1 8D7      -0.351100
     16 C3          -3.4530    -0.0740    -0.2990 c3         1 8D7      -0.059700
     17 C4          -3.5400    -1.4280     0.4750 c3         1 8D7      -0.075400
     18 C2          -4.7900     0.7270    -0.2250 c3         1 8D7      -0.075400
     19 C1          -4.8210     2.0380    -1.0500 c3         1 8D7      -0.076400
     20 C           -6.2120     2.7010    -1.0670 c3         1 8D7      -0.089600
     21 H1           1.1820    -1.2550    -0.4030 ha         1 8D7       0.126000
     22 H2           1.8050     3.2140     1.7040 ha         1 8D7       0.110000
     23 H3          -2.3690     0.9990     1.2600 h1         1 8D7       0.035200
     24 H4          -2.2010     1.7200    -0.3600 h1         1 8D7       0.035200
     25 H5          -5.2810    -4.4800     0.2350 hc         1 8D7       0.032033
     26 H6          -3.5350    -4.2680     0.4860 hc         1 8D7       0.032033
     27 H7          -4.6880    -3.7000     1.7170 hc         1 8D7       0.032033
     28 H8          -4.4450    -2.5750    -1.1380 hc         1 8D7       0.037950
     29 H9          -5.6010    -2.0330     0.0810 hc         1 8D7       0.037950
     30 H10          4.3390    -0.4850     1.9560 ho         1 8D7       0.439000
     31 H11          3.4830    -1.5860    -0.5220 h1         1 8D7       0.077700
     32 H12          4.4940     0.4630    -1.5750 hc         1 8D7       0.057200
     33 H13          5.4000     0.7620    -0.0930 hc         1 8D7       0.057200
     34 H14          6.5500    -1.4580    -0.3390 h1         1 8D7       0.033200
     35 H15          5.6070    -1.7740    -1.8190 h1         1 8D7       0.033200
     36 H16          7.5450     0.4110    -1.3950 hn         1 8D7       0.391500
     37 H17          7.8100    -0.9260    -2.2580 hn         1 8D7       0.391500
     38 H19          3.7760     1.7910     1.2510 ha         1 8D7       0.111000
     39 H20         -0.4650     2.4390     1.1210 ha         1 8D7       0.117000
     40 H21         -3.2710    -0.3090    -1.3550 hc         1 8D7       0.063700
     41 H22         -3.7440    -1.2260     1.5340 hc         1 8D7       0.044200
     42 H23         -2.5620    -1.9250     0.4400 hc         1 8D7       0.044200
     43 H24         -5.6080     0.0960    -0.5910 hc         1 8D7       0.044200
     44 H25         -5.0170     0.9570     0.8230 hc         1 8D7       0.044200
     45 H26         -4.1060     2.7590    -0.6380 hc         1 8D7       0.037950
     46 H27         -4.5140     1.8280    -2.0820 hc         1 8D7       0.037950
     47 H28         -6.9570     2.0320    -1.5150 hc         1 8D7       0.032033
     48 H29         -6.5360     2.9490    -0.0490 hc         1 8D7       0.032033
     49 H30         -6.1860     3.6270    -1.6540 hc         1 8D7       0.032033
@<TRIPOS>BOND
     1     1     3 ar  
     2     1    12 ar  
     3     1    21 1   
     4     2    13 ar  
     5     2    14 ar  
     6     2    22 1   
     7     3    14 ar  
     8     3    15 1   
     9     4    15 1   
    10     4    16 1   
    11     4    23 1   
    12     4    24 1   
    13     5     6 1   
    14     5    25 1   
    15     5    26 1   
    16     5    27 1   
    17     6    17 1   
    18     6    28 1   
    19     6    29 1   
    20     7     8 1   
    21     7    30 1   
    22     8     9 1   
    23     8    12 1   
    24     8    31 1   
    25     9    10 1   
    26     9    32 1   
    27     9    33 1   
    28    10    11 1   
    29    10    34 1   
    30    10    35 1   
    31    11    36 1   
    32    11    37 1   
    33    12    13 ar  
    34    13    38 1   
    35    14    39 1   
    36    16    17 1   
    37    16    18 1   
    38    16    40 1   
    39    17    41 1   
    40    17    42 1   
    41    18    19 1   
    42    18    43 1   
    43    18    44 1   
    44    19    20 1   
    45    19    45 1   
    46    19    46 1   
    47    20    47 1   
    48    20    48 1   
    49    20    49 1   
@<TRIPOS>SUBSTRUCTURE
     1 8D7         1 TEMP              0 ****  ****    0 ROOT
