@<TRIPOS>MOLECULE
8D7
   49    49     1     0     0
SMALL
abcg2


@<TRIPOS>ATOM
      1 C16          1.3940    -0.1710     0.3350 ca         1 8D7      -0.142000
      2 C10          1.5420     2.1230     1.8540 ca         1 8D7      -0.072000
      3 C8           0.2360     0.5730     0.5700 ca         1 8D7       0.151100
      4 C7          -2.1240     0.7540     0.2870 c3         1 8D7       0.165600
      5 C6          -4.4120    -3.7310     0.3740 c3         1 8D7      -0.089600
      6 C5          -4.2420    -2.4240    -0.3890 c3         1 8D7      -0.076400
      7 O1           4.7990    -0.5770     1.5760 oh         1 8D7      -0.651000
      8 C13          3.8500    -0.5970     0.5330 c3         1 8D7       0.214600
      9 C14          4.4450    -0.1610    -0.8060 c3         1 8D7      -0.115400
     10 C15          5.6010    -1.0340    -1.2730 c3         1 8D7       0.148800
     11 N            6.0760    -0.5890    -2.5760 n8         1 8D7      -0.994200
     12 C12          2.6170     0.2240     0.8520 ca         1 8D7      -0.072300
     13 C11          2.6890     1.3830     1.6230 ca         1 8D7      -0.138000
     14 C9           0.3110     1.7340     1.3360 ca         1 8D7      -0.199000
     15 O           -0.8970     0.0910     0.0270 os         1 8D7      -0.351100
     16 C3          -3.2590    -0.0540    -0.3230 c3         1 8D7      -0.059700
     17 C4          -3.4170    -1.4030     0.3860 c3         1 8D7      -0.075400
     18 C2          -4.5520     0.7680    -0.2670 c3         1 8D7      -0.075400
     19 C1          -4.6520     1.8790    -1.3070 c3         1 8D7      -0.076400
     20 C           -5.9400     2.6790    -1.1750 c3         1 8D7      -0.089600
     21 H1           1.3230    -1.0770    -0.2590 ha         1 8D7       0.126000
     22 H2           1.5950     3.0230     2.4530 ha         1 8D7       0.110000
     23 H3          -2.2820     0.8530     1.3690 h1         1 8D7       0.035200
     24 H4          -2.0950     1.7660    -0.1330 h1         1 8D7       0.035200
     25 H5          -4.9960    -4.4550    -0.1950 hc         1 8D7       0.032033
     26 H6          -3.4450    -4.1870     0.5960 hc         1 8D7       0.032033
     27 H7          -4.9230    -3.5670     1.3240 hc         1 8D7       0.032033
     28 H8          -3.7550    -2.6200    -1.3500 hc         1 8D7       0.037950
     29 H9          -5.2270    -2.0160    -0.6290 hc         1 8D7       0.037950
     30 H10          5.3270     0.2260     1.5080 ho         1 8D7       0.439000
     31 H11          3.5390    -1.6430     0.4410 h1         1 8D7       0.077700
     32 H12          3.6560    -0.1820    -1.5630 hc         1 8D7       0.057200
     33 H13          4.7700     0.8840    -0.7300 hc         1 8D7       0.057200
     34 H14          6.3860    -1.0490    -0.5060 h1         1 8D7       0.033200
     35 H15          5.2470    -2.0640    -1.3720 h1         1 8D7       0.033200
     36 H16          6.4960     0.3280    -2.4790 hn         1 8D7       0.391500
     37 H17          6.8270    -1.1950    -2.8820 hn         1 8D7       0.391500
     38 H19          3.6280     1.7120     2.0500 ha         1 8D7       0.111000
     39 H20         -0.5620     2.3370     1.5420 ha         1 8D7       0.117000
     40 H21         -3.0130    -0.2380    -1.3780 hc         1 8D7       0.063700
     41 H22         -3.8710    -1.2330     1.3700 hc         1 8D7       0.044200
     42 H23         -2.4330    -1.8390     0.5820 hc         1 8D7       0.044200
     43 H24         -5.4100     0.1020    -0.3980 hc         1 8D7       0.044200
     44 H25         -4.6630     1.1930     0.7380 hc         1 8D7       0.044200
     45 H26         -3.7980     2.5570    -1.2260 hc         1 8D7       0.037950
     46 H27         -4.5930     1.4370    -2.3060 hc         1 8D7       0.037950
     47 H28         -6.8170     2.0360    -1.2780 hc         1 8D7       0.032033
     48 H29         -6.0030     3.1640    -0.1980 hc         1 8D7       0.032033
     49 H30         -6.0100     3.4570    -1.9350 hc         1 8D7       0.032033
@<TRIPOS>BOND
     1     1     3 ar  
     2     1    12 ar  
     3     1    21 1   
     4     2    13 ar  
     5     2    14 ar  
     6     2    22 1   
     7     3    14 ar  
     8     3    15 1   
     9     4    15 1   
    10     4    16 1   
    11     4    23 1   
    12     4    24 1   
    13     5     6 1   
    14     5    25 1   
    15     5    26 1   
    16     5    27 1   
    17     6    17 1   
    18     6    28 1   
    19     6    29 1   
    20     7     8 1   
    21     7    30 1   
    22     8     9 1   
    23     8    12 1   
    24     8    31 1   
    25     9    10 1   
    26     9    32 1   
    27     9    33 1   
    28    10    11 1   
    29    10    34 1   
    30    10    35 1   
    31    11    36 1   
    32    11    37 1   
    33    12    13 ar  
    34    13    38 1   
    35    14    39 1   
    36    16    17 1   
    37    16    18 1   
    38    16    40 1   
    39    17    41 1   
    40    17    42 1   
    41    18    19 1   
    42    18    43 1   
    43    18    44 1   
    44    19    20 1   
    45    19    45 1   
    46    19    46 1   
    47    20    47 1   
    48    20    48 1   
    49    20    49 1   
@<TRIPOS>SUBSTRUCTURE
     1 8D7         1 TEMP              0 ****  ****    0 ROOT
