@<TRIPOS>MOLECULE
8D8
   29    30     1     0     0
SMALL
abcg2


@<TRIPOS>ATOM
      1 C13          0.5400     4.2990   -18.3910 cx         1 8D8      -0.142700
      2 C15          1.0170     4.5250   -19.7980 cx         1 8D8      -0.128400
      3 C01          0.6930     6.4090   -17.0080 c3         1 8D8      -0.104100
      4 C02          1.2490     5.0080   -17.2590 c3         1 8D8       0.160700
      5 N03          1.2730     4.2000   -16.0290 ns         1 8D8      -0.496900
      6 C04          0.1990     3.7870   -15.3590 c          1 8D8       0.623100
      7 O05         -0.9660     4.0140   -15.6780 o          1 8D8      -0.619100
      8 C06          0.4670     2.9030   -14.1030 c6         1 8D8      -0.272500
      9 C07         -0.6660     2.9950   -13.1410 c2         1 8D8      -0.105200
     10 C08         -0.4560     2.8580   -11.8270 ce         1 8D8      -0.377600
     11 C09          0.8910     2.6550   -11.3560 ce         1 8D8       0.553500
     12 N10          1.9630     2.6810   -12.0830 nf         1 8D8      -0.647100
     13 C11          1.8450     2.9370   -13.4490 c          1 8D8       0.704500
     14 O12          2.8640     3.1220   -14.0990 o          1 8D8      -0.523100
     15 C14          1.2380     3.1920   -19.1270 cx         1 8D8      -0.128400
     16 H1          -0.5270     4.1900   -18.2520 hc         1 8D8       0.101700
     17 H2           1.8810     5.1640   -19.9340 hc         1 8D8       0.071450
     18 H3           0.2790     4.5890   -20.5860 hc         1 8D8       0.071450
     19 H5           0.7930     7.0090   -17.9130 hc         1 8D8       0.048033
     20 H6          -0.3600     6.3650   -16.7330 hc         1 8D8       0.048033
     21 H7           2.3020     5.1000   -17.5350 h1         1 8D8       0.048700
     22 H8           2.1690     3.9240   -15.6460 hn         1 8D8       0.350500
     23 H9           0.4210     1.8760   -14.5110 hc         1 8D8       0.115700
     24 H10         -1.6510     3.1500   -13.5570 ha         1 8D8       0.220000
     25 H11         -1.2620     2.8910   -11.1080 ha         1 8D8       0.205000
     26 H12          1.0360     2.4750   -10.2930 h4         1 8D8       0.030800
     27 H13          0.6460     2.3490   -19.4590 hc         1 8D8       0.071450
     28 H14          2.2470     2.9450   -18.8200 hc         1 8D8       0.071450
     29 H4           1.2450     6.9010   -16.2040 hc         1 8D8       0.048033
@<TRIPOS>BOND
     1     1     2 1   
     2     1     4 1   
     3     1    15 1   
     4     1    16 1   
     5     2    15 1   
     6     2    17 1   
     7     2    18 1   
     8     3     4 1   
     9     3    19 1   
    10     3    20 1   
    11     3    29 1   
    12     4     5 1   
    13     4    21 1   
    14     5     6 1   
    15     5    22 1   
    16     6     7 2   
    17     6     8 1   
    18     8     9 1   
    19     8    13 1   
    20     8    23 1   
    21     9    10 2   
    22     9    24 1   
    23    10    11 1   
    24    10    25 1   
    25    11    12 2   
    26    11    26 1   
    27    12    13 1   
    28    13    14 2   
    29    15    27 1   
    30    15    28 1   
@<TRIPOS>SUBSTRUCTURE
     1 8D8         1 TEMP              0 ****  ****    0 ROOT
