@<TRIPOS>MOLECULE
8D8
   29    30     1     0     0
SMALL
No Charge or Current Charge


@<TRIPOS>ATOM
      1 C13          0.2660     4.3990   -18.1720 cx         1 8D8      -0.142700
      2 C15          0.2320     4.5030   -19.6800 cx         1 8D8      -0.128400
      3 C01          1.4750     6.3670   -17.0750 c3         1 8D8      -0.104100
      4 C02          1.4880     4.8550   -17.3780 c3         1 8D8       0.160700
      5 N03          1.6640     4.0350   -16.1750 ns         1 8D8      -0.496900
      6 C04          0.8310     3.9970   -15.0760 c          1 8D8       0.623100
      7 O05         -0.1940     4.6570   -14.9960 o          1 8D8      -0.619100
      8 C06          1.2620     3.0540   -13.9640 c6         1 8D8      -0.272500
      9 C07          0.2150     1.9830   -13.6650 c2         1 8D8      -0.105200
     10 C08         -0.5140     2.0770   -12.5340 ce         1 8D8      -0.377600
     11 C09         -0.3160     3.1740   -11.5850 ce         1 8D8       0.553500
     12 N10          0.5840     4.0950   -11.7890 nf         1 8D8      -0.647100
     13 C11          1.6120     3.8720   -12.7250 c          1 8D8       0.704500
     14 O12          2.7530     4.2350   -12.4920 o          1 8D8      -0.523100
     15 C14          0.3080     3.1460   -19.0170 cx         1 8D8      -0.128400
     16 H1          -0.6680     4.6030   -17.6540 hc         1 8D8       0.101700
     17 H2           1.1210     4.8680   -20.1900 hc         1 8D8       0.071450
     18 H3          -0.7080     4.7890   -20.1460 hc         1 8D8       0.071450
     19 H5           1.4770     6.9410   -18.0100 hc         1 8D8       0.048033
     20 H6           0.5860     6.6580   -16.5050 hc         1 8D8       0.048033
     21 H7           2.3730     4.6700   -18.0020 h1         1 8D8       0.048700
     22 H8           2.4770     3.4330   -16.1380 hn         1 8D8       0.350500
     23 H9           2.1970     2.5780   -14.2840 hc         1 8D8       0.115700
     24 H10          0.0780     1.1710   -14.3890 ha         1 8D8       0.220000
     25 H11         -1.2810     1.3460   -12.2790 ha         1 8D8       0.205000
     26 H12         -0.9770     3.2330   -10.7170 h4         1 8D8       0.030800
     27 H13         -0.5810     2.5200   -19.0380 hc         1 8D8       0.071450
     28 H14          1.2480     2.6030   -19.0820 hc         1 8D8       0.071450
     29 H4           2.3640     6.6520   -16.5000 hc         1 8D8       0.048033
@<TRIPOS>BOND
     1     1     2 1   
     2     1     4 1   
     3     1    15 1   
     4     1    16 1   
     5     2    15 1   
     6     2    17 1   
     7     2    18 1   
     8     3     4 1   
     9     3    19 1   
    10     3    20 1   
    11     3    29 1   
    12     4     5 1   
    13     4    21 1   
    14     5     6 1   
    15     5    22 1   
    16     6     7 2   
    17     6     8 1   
    18     8     9 1   
    19     8    13 1   
    20     8    23 1   
    21     9    10 2   
    22     9    24 1   
    23    10    11 1   
    24    10    25 1   
    25    11    12 2   
    26    11    26 1   
    27    12    13 1   
    28    13    14 2   
    29    15    27 1   
    30    15    28 1   
@<TRIPOS>SUBSTRUCTURE
     1 8D8         1 TEMP              0 ****  ****    0 ROOT
