@<TRIPOS>MOLECULE
8DA
   34    36     1     0     0
SMALL
abcg2


@<TRIPOS>ATOM
      1 O19         -3.1010    -2.0530    -1.8620 oh         1 8DA      -0.708000
      2 C5          -2.8040    -1.7200    -0.5260 c3         1 8DA       0.159600
      3 C4          -2.7890    -0.2190    -0.3710 c5         1 8DA       0.172300
      4 C3          -2.5910     0.2130     1.0810 c5         1 8DA       0.131300
      5 O3          -3.8480     0.3330     1.7030 oh         1 8DA      -0.711000
      6 O4          -1.7120     0.3360    -1.1070 os         1 8DA      -0.442000
      7 C1          -1.1030     1.4020    -0.4140 c5         1 8DA       0.357700
      8 C2          -1.8200     1.5220     0.9330 c5         1 8DA      -0.149400
      9 N9           0.3170     1.1780    -0.3380 n          1 8DA      -0.340300
     10 C9           0.9620     0.1760     0.3680 cc         1 8DA       0.573200
     11 N3           0.4270    -0.7660     1.0560 n2         1 8DA      -0.702900
     12 C7           2.3540     0.3340     0.0900 cc         1 8DA      -0.366000
     13 N7           2.4660     1.4230    -0.8010 ns         1 8DA      -0.500600
     14 C8           1.2420     1.9690    -1.0170 c          1 8DA       0.610000
     15 O18          0.9840     2.9700    -1.6620 o          1 8DA      -0.562000
     16 C6           3.1030    -0.8220     0.1250 c2         1 8DA       0.409000
     17 N6           4.1940    -1.0720    -0.6240 nv         1 8DA      -0.963000
     18 N1           2.6390    -1.8020     0.9390 nu         1 8DA      -0.843200
     19 C10          1.4650    -1.4930     1.7520 c6         1 8DA       0.408000
     20 H19         -3.0770    -3.0110    -1.9440 ho         1 8DA       0.498000
     21 H5'1        -1.8270    -2.1090    -0.2100 h1         1 8DA       0.031700
     22 H5'2        -3.5560    -2.1190     0.1690 h1         1 8DA       0.031700
     23 H4          -3.7400     0.1990    -0.7350 h1         1 8DA       0.073700
     24 H3          -1.9610    -0.5180     1.5960 h1         1 8DA       0.070700
     25 H1          -3.7090     0.3570     2.6540 ho         1 8DA       0.506000
     26 H6          -1.2140     2.3230    -0.9890 h2         1 8DA       0.097700
     27 H2'1        -1.1350     1.7180     1.7570 hc         1 8DA       0.068700
     28 H2'2        -2.5300     2.3500     0.8800 hc         1 8DA       0.068700
     29 HN7          3.2970     1.9810    -0.9210 hn         1 8DA       0.447000
     30 HN61         4.5520    -0.3410    -1.2140 hn         1 8DA       0.486000
     31 HN62         4.8860    -1.7160    -0.2780 hn         1 8DA       0.486000
     32 HN1          2.7710    -2.7520     0.6250 hn         1 8DA       0.486000
     33 H21          1.8130    -0.9040     2.6140 h2         1 8DA       0.057700
     34 H22          1.0790    -2.4370     2.1300 h2         1 8DA       0.057700
@<TRIPOS>BOND
     1     1     2 1   
     2     1    20 1   
     3     2     3 1   
     4     2    21 1   
     5     2    22 1   
     6     3     4 1   
     7     3     6 1   
     8     3    23 1   
     9     4     5 1   
    10     4     8 1   
    11     4    24 1   
    12     5    25 1   
    13     6     7 1   
    14     7     8 1   
    15     7     9 1   
    16     7    26 1   
    17     8    27 1   
    18     8    28 1   
    19     9    10 1   
    20     9    14 1   
    21    10    11 2   
    22    10    12 1   
    23    11    19 1   
    24    12    13 1   
    25    12    16 2   
    26    13    14 1   
    27    13    29 1   
    28    14    15 2   
    29    16    17 1   
    30    16    18 1   
    31    17    30 1   
    32    17    31 1   
    33    18    19 1   
    34    18    32 1   
    35    19    33 1   
    36    19    34 1   
@<TRIPOS>SUBSTRUCTURE
     1 8DA         1 TEMP              0 ****  ****    0 ROOT
