@<TRIPOS>MOLECULE
8DA
   34    36     1     0     0
SMALL
No Charge or Current Charge


@<TRIPOS>ATOM
      1 O19         -4.2230    -1.6050    -1.9490 oh         1 8DA      -0.708000
      2 C5          -3.6700    -1.5330    -0.6190 c3         1 8DA       0.159600
      3 C4          -2.9970    -0.1570    -0.3520 c5         1 8DA       0.172300
      4 C3          -2.5180     0.0590     1.1150 c5         1 8DA       0.131300
      5 O3          -3.5830     0.3440     2.0290 oh         1 8DA      -0.711000
      6 O4          -1.7640    -0.0330    -1.0890 os         1 8DA      -0.442000
      7 C1          -1.0840     1.1140    -0.5490 c5         1 8DA       0.357700
      8 C2          -1.5780     1.2840     0.9260 c5         1 8DA      -0.149400
      9 N9           0.3750     0.9220    -0.5900 n          1 8DA      -0.340300
     10 C9           1.1150    -0.0130     0.1260 cc         1 8DA       0.573200
     11 N3           0.7040    -0.9390     0.9310 n2         1 8DA      -0.702900
     12 C7           2.4580     0.2410    -0.2230 cc         1 8DA      -0.366000
     13 N7           2.4630     1.3010    -1.1190 ns         1 8DA      -0.500600
     14 C8           1.1970     1.7420    -1.3640 c          1 8DA       0.610000
     15 O18          0.8730     2.6610    -2.0970 o          1 8DA      -0.562000
     16 C6           3.3940    -0.5260     0.3290 c2         1 8DA       0.409000
     17 N6           4.7230    -0.4700     0.1480 nv         1 8DA      -0.963000
     18 N1           3.0840    -1.5090     1.1890 nu         1 8DA      -0.843200
     19 C10          1.6970    -1.8340     1.5650 c6         1 8DA       0.408000
     20 H19         -4.5810    -2.5160    -2.0640 ho         1 8DA       0.498000
     21 H5'1        -2.9260    -2.3270    -0.4660 h1         1 8DA       0.031700
     22 H5'2        -4.4660    -1.6800     0.1230 h1         1 8DA       0.031700
     23 H4          -3.6850     0.6430    -0.6590 h1         1 8DA       0.073700
     24 H3          -1.9480    -0.8210     1.4480 h1         1 8DA       0.070700
     25 H1          -3.1760     0.4700     2.9180 ho         1 8DA       0.506000
     26 H6          -1.3220     2.0100    -1.1390 h2         1 8DA       0.097700
     27 H2'1        -0.7720     1.3150     1.6670 hc         1 8DA       0.068700
     28 H2'2        -2.1250     2.2280     1.0230 hc         1 8DA       0.068700
     29 HN7          3.2660     1.7340    -1.5730 hn         1 8DA       0.447000
     30 HN61         5.0270     0.3190    -0.4110 hn         1 8DA       0.486000
     31 HN62         5.2690    -0.5920     0.9940 hn         1 8DA       0.486000
     32 HN1          3.7630    -2.2620     1.2540 hn         1 8DA       0.486000
     33 H21          1.5800    -1.7660     2.6580 h2         1 8DA       0.057700
     34 H22          1.4640    -2.8720     1.2800 h2         1 8DA       0.057700
@<TRIPOS>BOND
     1     1     2 1   
     2     1    20 1   
     3     2     3 1   
     4     2    21 1   
     5     2    22 1   
     6     3     4 1   
     7     3     6 1   
     8     3    23 1   
     9     4     5 1   
    10     4     8 1   
    11     4    24 1   
    12     5    25 1   
    13     6     7 1   
    14     7     8 1   
    15     7     9 1   
    16     7    26 1   
    17     8    27 1   
    18     8    28 1   
    19     9    10 1   
    20     9    14 1   
    21    10    11 2   
    22    10    12 1   
    23    11    19 1   
    24    12    13 1   
    25    12    16 2   
    26    13    14 1   
    27    13    29 1   
    28    14    15 2   
    29    16    17 1   
    30    16    18 1   
    31    17    30 1   
    32    17    31 1   
    33    18    19 1   
    34    18    32 1   
    35    19    33 1   
    36    19    34 1   
@<TRIPOS>SUBSTRUCTURE
     1 8DA         1 TEMP              0 ****  ****    0 ROOT
