@<TRIPOS>MOLECULE
8DB
   27    29     1     0     0
SMALL
No Charge or Current Charge


@<TRIPOS>ATOM
      1 C4          13.9030    15.4910    10.7940 ca         1 8DB      -0.160000
      2 C5          13.7720    15.0170     9.4700 ca         1 8DB       0.178100
      3 C6          11.3200    15.2890     9.4660 c3         1 8DB       0.243900
      4 C11         14.9150    14.6250     8.7590 ca         1 8DB      -0.136000
      5 C7          10.2110    15.0480     8.4800 cc         1 8DB      -0.243300
      6 C8           9.6470    15.9430     7.6040 cd         1 8DB      -0.092000
      7 C9           8.6120    15.3800     6.8100 cd         1 8DB      -0.138000
      8 C10          8.3800    14.0540     7.0730 cc         1 8DB      -0.226000
      9 C12         16.1840    14.7010     9.3530 ca         1 8DB      -0.013000
     10 C13         16.3160    15.1750    10.6750 ca         1 8DB      -0.196600
     11 N1          17.6610    15.7530    12.6470 nc         1 8DB      -0.172400
     12 N2          16.6490    16.1470    13.4060 nd         1 8DB      -0.175400
     13 C3          15.1780    15.5720    11.4010 ca         1 8DB      -0.096600
     14 C1          17.6540    15.2710    11.3440 c          1 8DB       0.633100
     15 C2          15.3480    16.0780    12.8210 c          1 8DB       0.622100
     16 O2          14.3790    16.4320    13.4820 o          1 8DB      -0.439100
     17 O3          12.5530    14.9170     8.8310 os         1 8DB      -0.342100
     18 S1           9.4600    13.4620     8.3320 ss         1 8DB       0.224000
     19 H1          13.0290    15.7990    11.3600 ha         1 8DB       0.144000
     20 H2          11.3320    16.3500     9.7520 h1         1 8DB       0.055700
     21 H3          11.1470    14.6870    10.3680 h1         1 8DB       0.055700
     22 H4          14.8140    14.2590     7.7400 ha         1 8DB       0.143000
     23 H5           9.9610    16.9800     7.5250 ha         1 8DB       0.137000
     24 H6           8.0590    15.9460     6.0660 ha         1 8DB       0.139000
     25 H7           7.6610    13.3810     6.6250 h4         1 8DB       0.154000
     26 H8          17.0600    14.3920     8.7840 ha         1 8DB       0.145000
     27 O1          18.6850    14.9430    10.7700 o          1 8DB      -0.446100
@<TRIPOS>BOND
     1     1     2 ar  
     2     1    13 ar  
     3     1    19 1   
     4     2     4 ar  
     5     2    17 1   
     6     3     5 1   
     7     3    17 1   
     8     3    20 1   
     9     3    21 1   
    10     4     9 ar  
    11     4    22 1   
    12     5     6 2   
    13     5    18 1   
    14     6     7 1   
    15     6    23 1   
    16     7     8 2   
    17     7    24 1   
    18     8    18 1   
    19     8    25 1   
    20     9    10 ar  
    21     9    26 1   
    22    10    13 ar  
    23    10    14 1   
    24    11    12 2   
    25    11    14 1   
    26    12    15 1   
    27    13    15 1   
    28    14    27 2   
    29    15    16 2   
@<TRIPOS>SUBSTRUCTURE
     1 8DB         1 TEMP              0 ****  ****    0 ROOT
