@<TRIPOS>MOLECULE
8DB
   27    29     1     0     0
SMALL
abcg2


@<TRIPOS>ATOM
      1 C4          13.8610    15.4980    10.7780 ca         1 8DB      -0.160000
      2 C5          13.7470    15.0650     9.4550 ca         1 8DB       0.178100
      3 C6          11.3540    15.3420     9.4530 c3         1 8DB       0.243900
      4 C11         14.8980    14.6810     8.7400 ca         1 8DB      -0.136000
      5 C7          10.2280    15.0790     8.5240 cc         1 8DB      -0.243300
      6 C8           9.6940    15.9290     7.5920 cd         1 8DB      -0.092000
      7 C9           8.6650    15.3300     6.8180 cd         1 8DB      -0.138000
      8 C10          8.4330    14.0290     7.1710 cc         1 8DB      -0.226000
      9 C12         16.1400    14.7330     9.3320 ca         1 8DB      -0.013000
     10 C13         16.2660    15.1680    10.6570 ca         1 8DB      -0.196600
     11 N1          17.6320    15.6760    12.7300 nc         1 8DB      -0.172400
     12 N2          16.6270    16.0140    13.3620 nd         1 8DB      -0.175400
     13 C3          15.1210    15.5480    11.3640 ca         1 8DB      -0.096600
     14 C1          17.5570    15.2420    11.3100 c          1 8DB       0.633100
     15 C2          15.2770    16.0070    12.7460 c          1 8DB       0.622100
     16 O2          14.3900    16.3930    13.4650 o          1 8DB      -0.439100
     17 O3          12.5920    14.9840     8.7800 os         1 8DB      -0.342100
     18 S1           9.4610    13.5300     8.4500 ss         1 8DB       0.224000
     19 H1          13.0010    15.8030    11.3520 ha         1 8DB       0.144000
     20 H2          11.3920    16.4010     9.7150 h1         1 8DB       0.055700
     21 H3          11.2700    14.7500    10.3660 h1         1 8DB       0.055700
     22 H4          14.7840    14.3480     7.7180 ha         1 8DB       0.143000
     23 H5          10.0230    16.9520     7.4730 ha         1 8DB       0.137000
     24 H6           8.1190    15.8390     6.0360 ha         1 8DB       0.139000
     25 H7           7.7100    13.3430     6.7580 h4         1 8DB       0.154000
     26 H8          17.0210    14.4380     8.7800 ha         1 8DB       0.145000
     27 O1          18.6260    14.9710    10.8120 o          1 8DB      -0.446100
@<TRIPOS>BOND
     1     1     2 ar  
     2     1    13 ar  
     3     1    19 1   
     4     2     4 ar  
     5     2    17 1   
     6     3     5 1   
     7     3    17 1   
     8     3    20 1   
     9     3    21 1   
    10     4     9 ar  
    11     4    22 1   
    12     5     6 2   
    13     5    18 1   
    14     6     7 1   
    15     6    23 1   
    16     7     8 2   
    17     7    24 1   
    18     8    18 1   
    19     8    25 1   
    20     9    10 ar  
    21     9    26 1   
    22    10    13 ar  
    23    10    14 1   
    24    11    12 2   
    25    11    14 1   
    26    12    15 1   
    27    13    15 1   
    28    14    27 2   
    29    15    16 2   
@<TRIPOS>SUBSTRUCTURE
     1 8DB         1 TEMP              0 ****  ****    0 ROOT
