@<TRIPOS>MOLECULE
8DE
   50    53     1     0     0
SMALL
No Charge or Current Charge


@<TRIPOS>ATOM
      1 C01         99.9310   141.5480   145.0330 cc         1 8DE      -0.294000
      2 C03        101.7080   143.1300   145.3700 cc         1 8DE       0.639300
      3 C08        101.4830   144.5580   148.0050 ca         1 8DE      -0.356500
      4 C09        100.6020   145.5890   147.6250 ca         1 8DE       0.021000
      5 C10         99.3400   145.6960   148.2330 ca         1 8DE      -0.175500
      6 C11         98.9410   144.7760   149.2260 ca         1 8DE       0.047000
      7 C13         96.5350   145.5730   149.6540 c          1 8DE       0.613100
      8 C15         95.3910   145.3030   150.6700 c3         1 8DE      -0.046100
      9 C16         94.9060   146.5950   151.3370 ca         1 8DE      -0.085300
     10 C17         95.2680   146.8800   152.6700 ca         1 8DE      -0.093750
     11 C18         94.8280   148.0620   153.2920 ca         1 8DE      -0.108750
     12 C19         94.0210   148.9700   152.5870 ca         1 8DE      -0.100500
     13 C20         93.6560   148.6950   151.2590 ca         1 8DE      -0.108750
     14 C21         94.0960   147.5140   150.6370 ca         1 8DE      -0.093750
     15 C22         94.2280   144.4720   150.1000 ca         1 8DE      -0.085300
     16 C23         93.5960   143.5250   150.9340 ca         1 8DE      -0.093750
     17 C24         92.5280   142.7460   150.4570 ca         1 8DE      -0.108750
     18 C25         92.0740   142.9060   149.1390 ca         1 8DE      -0.100500
     19 C26         92.6880   143.8500   148.3000 ca         1 8DE      -0.108750
     20 C27         93.7570   144.6300   148.7760 ca         1 8DE      -0.093750
     21 C28         99.8350   143.7590   149.6070 ca         1 8DE      -0.175500
     22 C29        101.0990   143.6450   149.0050 ca         1 8DE       0.021000
     23 C31         99.9820   142.5780   144.1210 cd         1 8DE       0.299900
     24 N04        102.7710   143.8890   145.6670 nu         1 8DE      -0.830000
     25 N12         97.6830   144.8240   149.8850 ns         1 8DE      -0.150000
     26 N30        101.0180   143.4830   144.3130 nd         1 8DE      -0.686000
     27 O06        103.8670   143.3360   147.8110 o          1 8DE      -0.523500
     28 O07        103.6350   145.7500   146.9710 o          1 8DE      -0.523500
     29 O14         96.4180   146.3630   148.7240 o          1 8DE      -0.548100
     30 S02        101.2220   141.6660   146.1940 ss         1 8DE       0.030600
     31 S05        103.0840   144.4160   147.2070 sy         1 8DE       1.170600
     32 H1          99.2250   140.7300   145.0880 h4         1 8DE       0.162000
     33 H3         100.8880   146.3090   146.8580 ha         1 8DE       0.137000
     34 H4          98.6920   146.5070   147.9210 ha         1 8DE       0.136000
     35 H5          95.8420   144.6750   151.4490 hc         1 8DE       0.069700
     36 H6          95.8920   146.1870   153.2310 ha         1 8DE       0.115250
     37 H7          95.1120   148.2730   154.3200 ha         1 8DE       0.116000
     38 H8          93.6810   149.8840   153.0680 ha         1 8DE       0.115500
     39 H9          93.0330   149.3980   150.7100 ha         1 8DE       0.116000
     40 H10         93.8070   147.3190   149.6070 ha         1 8DE       0.115250
     41 H11         93.9310   143.3910   151.9610 ha         1 8DE       0.115250
     42 H12         92.0520   142.0180   151.1110 ha         1 8DE       0.116000
     43 H13         91.2470   142.3040   148.7690 ha         1 8DE       0.115500
     44 H14         92.3340   143.9790   147.2800 ha         1 8DE       0.116000
     45 H15         94.2030   145.3580   148.1060 ha         1 8DE       0.115250
     46 H16         99.5500   143.0440   150.3760 ha         1 8DE       0.136000
     47 H17        101.7680   142.8430   149.3170 ha         1 8DE       0.137000
     48 H18         99.2950   142.7210   143.2950 h4         1 8DE       0.042100
     49 H19         97.6140   144.1920   150.6720 hn         1 8DE       0.159000
     50 H2         102.7750   144.7230   145.1070 hn         1 8DE       0.514000
@<TRIPOS>BOND
     1     1    23 2   
     2     1    30 1   
     3     1    32 1   
     4     2    24 1   
     5     2    26 2   
     6     2    30 1   
     7     3     4 ar  
     8     3    22 ar  
     9     3    31 1   
    10     4     5 ar  
    11     4    33 1   
    12     5     6 ar  
    13     5    34 1   
    14     6    21 ar  
    15     6    25 1   
    16     7     8 1   
    17     7    25 1   
    18     7    29 2   
    19     8     9 1   
    20     8    15 1   
    21     8    35 1   
    22     9    10 ar  
    23     9    14 ar  
    24    10    11 ar  
    25    10    36 1   
    26    11    12 ar  
    27    11    37 1   
    28    12    13 ar  
    29    12    38 1   
    30    13    14 ar  
    31    13    39 1   
    32    14    40 1   
    33    15    16 ar  
    34    15    20 ar  
    35    16    17 ar  
    36    16    41 1   
    37    17    18 ar  
    38    17    42 1   
    39    18    19 ar  
    40    18    43 1   
    41    19    20 ar  
    42    19    44 1   
    43    20    45 1   
    44    21    22 ar  
    45    21    46 1   
    46    22    47 1   
    47    23    26 1   
    48    23    48 1   
    49    24    31 1   
    50    24    50 1   
    51    25    49 1   
    52    27    31 2   
    53    28    31 2   
@<TRIPOS>SUBSTRUCTURE
     1 8DE         1 TEMP              0 ****  ****    0 ROOT
