@<TRIPOS>MOLECULE
8DE
   50    53     1     0     0
SMALL
bcc


@<TRIPOS>ATOM
      1 C01         99.9670   141.2790   144.3080 cc         1 8DE      -0.232400
      2 C03        101.2370   143.2090   144.9960 cc         1 8DE       0.639300
      3 C08        101.2240   144.3170   148.0790 ca         1 8DE      -0.356500
      4 C09        100.7250   145.6050   148.2290 ca         1 8DE       0.003000
      5 C10         99.5710   145.8250   148.9550 ca         1 8DE      -0.193500
      6 C11         98.9000   144.7450   149.5390 ca         1 8DE       0.139600
      7 C13         96.8620   145.9200   150.3270 c          1 8DE       0.680100
      8 C15         95.5930   145.5990   151.1160 c3         1 8DE      -0.046100
      9 C16         94.8230   146.8510   151.4630 ca         1 8DE      -0.085300
     10 C17         94.8270   147.3200   152.7720 ca         1 8DE      -0.111750
     11 C18         94.1250   148.4680   153.1190 ca         1 8DE      -0.126750
     12 C19         93.4130   149.1640   152.1540 ca         1 8DE      -0.118500
     13 C20         93.4030   148.7010   150.8440 ca         1 8DE      -0.126750
     14 C21         94.1010   147.5530   150.5010 ca         1 8DE      -0.111750
     15 C22         94.7390   144.5810   150.3840 ca         1 8DE      -0.085300
     16 C23         93.9860   143.6740   151.1250 ca         1 8DE      -0.111750
     17 C24         93.1600   142.7550   150.4930 ca         1 8DE      -0.126750
     18 C25         93.0800   142.7280   149.1070 ca         1 8DE      -0.118500
     19 C26         93.8310   143.6250   148.3600 ca         1 8DE      -0.126750
     20 C27         94.6550   144.5460   148.9940 ca         1 8DE      -0.111750
     21 C28         99.4250   143.4570   149.3940 ca         1 8DE      -0.193500
     22 C29        100.5780   143.2370   148.6670 ca         1 8DE       0.003000
     23 C31         99.6130   142.4560   143.7420 cd         1 8DE       0.365200
     24 N04        102.1400   144.1240   145.5080 nu         1 8DE      -0.774800
     25 N12         97.7320   144.8690   150.2800 ns         1 8DE      -0.476100
     26 N30        100.3320   143.5480   144.1400 nd         1 8DE      -0.686000
     27 O06        103.1340   142.7120   147.3020 o          1 8DE      -0.594300
     28 O07        103.5420   145.2060   147.2380 o          1 8DE      -0.594300
     29 O14         97.0590   146.9870   149.7880 o          1 8DE      -0.548100
     30 S02        101.2890   141.5220   145.3830 ss         1 8DE      -0.114300
     31 S05        102.6590   144.0670   147.0980 sy         1 8DE       1.312200
     32 H1          99.5290   140.3040   144.1690 h4         1 8DE       0.180000
     33 H3         101.2320   146.4530   147.7860 ha         1 8DE       0.155000
     34 H4          99.2100   146.8330   149.0660 ha         1 8DE       0.154000
     35 H5          95.9140   145.1370   152.0560 hc         1 8DE       0.069700
     36 H6          95.3820   146.7810   153.5320 ha         1 8DE       0.133250
     37 H7          94.1360   148.8140   154.1450 ha         1 8DE       0.134000
     38 H8          92.8640   150.0580   152.4210 ha         1 8DE       0.133500
     39 H9          92.8470   149.2360   150.0840 ha         1 8DE       0.134000
     40 H10         94.0700   147.2030   149.4770 ha         1 8DE       0.133250
     41 H11         94.0460   143.6880   152.2070 ha         1 8DE       0.133250
     42 H12         92.5830   142.0560   151.0850 ha         1 8DE       0.134000
     43 H13         92.4390   142.0100   148.6120 ha         1 8DE       0.133500
     44 H14         93.7790   143.6100   147.2790 ha         1 8DE       0.134000
     45 H15         95.2310   145.2350   148.3880 ha         1 8DE       0.133250
     46 H16         98.9210   142.6130   149.8500 ha         1 8DE       0.154000
     47 H17        100.9630   142.2320   148.5730 ha         1 8DE       0.155000
     48 H18         98.8140   142.5790   143.0260 h4         1 8DE       0.042100
     49 H19         97.4320   144.0260   150.7500 hn         1 8DE       0.325500
     50 H2         102.0140   145.0640   145.1430 hn         1 8DE       0.458800
@<TRIPOS>BOND
     1     1    23 2   
     2     1    30 1   
     3     1    32 1   
     4     2    24 1   
     5     2    26 2   
     6     2    30 1   
     7     3     4 ar  
     8     3    22 ar  
     9     3    31 1   
    10     4     5 ar  
    11     4    33 1   
    12     5     6 ar  
    13     5    34 1   
    14     6    21 ar  
    15     6    25 1   
    16     7     8 1   
    17     7    25 1   
    18     7    29 2   
    19     8     9 1   
    20     8    15 1   
    21     8    35 1   
    22     9    10 ar  
    23     9    14 ar  
    24    10    11 ar  
    25    10    36 1   
    26    11    12 ar  
    27    11    37 1   
    28    12    13 ar  
    29    12    38 1   
    30    13    14 ar  
    31    13    39 1   
    32    14    40 1   
    33    15    16 ar  
    34    15    20 ar  
    35    16    17 ar  
    36    16    41 1   
    37    17    18 ar  
    38    17    42 1   
    39    18    19 ar  
    40    18    43 1   
    41    19    20 ar  
    42    19    44 1   
    43    20    45 1   
    44    21    22 ar  
    45    21    46 1   
    46    22    47 1   
    47    23    26 1   
    48    23    48 1   
    49    24    31 1   
    50    24    50 1   
    51    25    49 1   
    52    27    31 2   
    53    28    31 2   
@<TRIPOS>SUBSTRUCTURE
     1 8DE         1 TEMP              0 ****  ****    0 ROOT
