@<TRIPOS>MOLECULE
8DH
   32    32     1     0     0
SMALL
No Charge or Current Charge


@<TRIPOS>ATOM
      1 C10         -0.8470     6.6250   -10.1810 c6         1 8DH       0.169800
      2 N12         -3.0050     7.9510   -10.0310 ns         1 8DH      -0.501900
      3 C13         -3.2090     7.5440    -8.7310 c          1 8DH       0.573000
      4 C15         -2.0940     6.6740    -8.0850 c6         1 8DH       0.088800
      5 C01         -1.5800     2.3940    -7.2120 c3         1 8DH      -0.104100
      6 C02         -0.4940     3.4660    -6.9770 c3         1 8DH       0.240500
      7 C03          0.7640     2.8420    -6.3250 c3         1 8DH      -0.104100
      8 N04         -0.2120     4.2520    -8.2060 n3         1 8DH      -0.815500
      9 C05          0.4140     3.4780    -9.3050 c3         1 8DH       0.205100
     10 O07          1.7170     5.9190    -8.7280 o          1 8DH      -0.544000
     11 O08          0.4700     6.1320    -6.5310 o          1 8DH      -0.544000
     12 N09         -0.7330     6.7810    -8.7090 n3         1 8DH      -0.695500
     13 C11         -1.7700     7.7100   -10.8050 c6         1 8DH       0.117000
     14 O14         -4.2290     7.8590    -8.1350 o          1 8DH      -0.563000
     15 H1          -1.2610     5.6360   -10.4250 h1         1 8DH       0.064700
     16 H2           0.1370     6.6910   -10.6670 h1         1 8DH       0.064700
     17 H3          -3.7390     8.5140   -10.4440 hn         1 8DH       0.322500
     18 H4          -2.0600     6.9550    -7.0230 h1         1 8DH       0.085200
     19 H5          -2.4650     5.6410    -8.1400 h1         1 8DH       0.085200
     20 H6          -1.9090     1.9700    -6.2560 hc         1 8DH       0.043700
     21 H7          -2.4540     2.8370    -7.7040 hc         1 8DH       0.043700
     22 H8          -1.2090     1.5720    -7.8340 hc         1 8DH       0.043700
     23 H9          -0.9340     4.1400    -6.2280 h1         1 8DH       0.075700
     24 H10          0.5030     2.3770    -5.3670 hc         1 8DH       0.043700
     25 H11          1.2010     2.0670    -6.9660 hc         1 8DH       0.043700
     26 H12          1.5310     3.6000    -6.1290 hc         1 8DH       0.043700
     27 H13         -0.1520     2.5660    -9.5280 h1         1 8DH       0.044700
     28 H14          0.4500     4.0660   -10.2310 h1         1 8DH       0.044700
     29 H15          1.4420     3.1890    -9.0520 h1         1 8DH       0.044700
     30 H16         -1.2170     8.6580   -10.8550 h1         1 8DH       0.052700
     31 H17         -2.0370     7.4250   -11.8320 h1         1 8DH       0.052700
     32 S06          0.4730     5.8150    -7.9610 s6         1 8DH       1.278200
@<TRIPOS>BOND
     1     1    12 1   
     2     1    13 1   
     3     1    15 1   
     4     1    16 1   
     5     2     3 1   
     6     2    13 1   
     7     2    17 1   
     8     3     4 1   
     9     3    14 2   
    10     4    12 1   
    11     4    18 1   
    12     4    19 1   
    13     5     6 1   
    14     5    20 1   
    15     5    21 1   
    16     5    22 1   
    17     6     7 1   
    18     6     8 1   
    19     6    23 1   
    20     7    24 1   
    21     7    25 1   
    22     7    26 1   
    23     8     9 1   
    24     8    32 1   
    25     9    27 1   
    26     9    28 1   
    27     9    29 1   
    28    10    32 2   
    29    11    32 2   
    30    12    32 1   
    31    13    30 1   
    32    13    31 1   
@<TRIPOS>SUBSTRUCTURE
     1 8DH         1 TEMP              0 ****  ****    0 ROOT
