@<TRIPOS>MOLECULE
8DH
   32    32     1     0     0
SMALL
bcc


@<TRIPOS>ATOM
      1 C10         -0.9730     6.5620   -10.2530 c6         1 8DH       0.169800
      2 N12         -2.9630     7.9300    -9.9600 ns         1 8DH      -0.568900
      3 C13         -3.1960     7.4260    -8.7430 c          1 8DH       0.715500
      4 C15         -2.1250     6.5360    -8.1420 c6         1 8DH       0.088800
      5 C01         -1.6080     2.6080    -7.2420 c3         1 8DH      -0.104100
      6 C02         -0.4230     3.5160    -6.9350 c3         1 8DH       0.240500
      7 C03          0.7220     2.7580    -6.2790 c3         1 8DH      -0.104100
      8 N04          0.0130     4.2290    -8.1510 n3         1 8DH      -0.815500
      9 C05          0.5970     3.4490    -9.2360 c3         1 8DH       0.205100
     10 O07          1.5810     6.0610    -8.8960 o          1 8DH      -0.614800
     11 O08          0.3960     6.2480    -6.6930 o          1 8DH      -0.614800
     12 N09         -0.8360     6.6710    -8.8060 n3         1 8DH      -0.695500
     13 C11         -1.7420     7.7770   -10.7220 c6         1 8DH       0.117000
     14 O14         -4.2330     7.6120    -8.1240 o          1 8DH      -0.638500
     15 H1          -1.4950     5.6400   -10.5370 h1         1 8DH       0.064700
     16 H2           0.0040     6.5650   -10.7290 h1         1 8DH       0.064700
     17 H3          -3.6770     8.5370   -10.3390 hn         1 8DH       0.322500
     18 H4          -2.0370     6.8060    -7.0910 h1         1 8DH       0.085200
     19 H5          -2.5030     5.5050    -8.1930 h1         1 8DH       0.085200
     20 H6          -1.9880     2.1850    -6.3120 hc         1 8DH       0.043700
     21 H7          -2.4180     3.1640    -7.7140 hc         1 8DH       0.043700
     22 H8          -1.3410     1.7730    -7.8900 hc         1 8DH       0.043700
     23 H9          -0.7770     4.2720    -6.2370 h1         1 8DH       0.075700
     24 H10          0.3760     2.2790    -5.3630 hc         1 8DH       0.043700
     25 H11          1.1130     1.9730    -6.9300 hc         1 8DH       0.043700
     26 H12          1.5420     3.4280    -6.0180 hc         1 8DH       0.043700
     27 H13          0.0720     2.4980    -9.2930 h1         1 8DH       0.044700
     28 H14          0.4600     3.9400   -10.1970 h1         1 8DH       0.044700
     29 H15          1.6590     3.2460    -9.0930 h1         1 8DH       0.044700
     30 H16         -1.1160     8.6680   -10.6280 h1         1 8DH       0.052700
     31 H17         -1.9960     7.6590   -11.7750 h1         1 8DH       0.052700
     32 S06          0.4060     5.8240    -8.0800 s6         1 8DH       1.419800
@<TRIPOS>BOND
     1     1    12 1   
     2     1    13 1   
     3     1    15 1   
     4     1    16 1   
     5     2     3 1   
     6     2    13 1   
     7     2    17 1   
     8     3     4 1   
     9     3    14 2   
    10     4    12 1   
    11     4    18 1   
    12     4    19 1   
    13     5     6 1   
    14     5    20 1   
    15     5    21 1   
    16     5    22 1   
    17     6     7 1   
    18     6     8 1   
    19     6    23 1   
    20     7    24 1   
    21     7    25 1   
    22     7    26 1   
    23     8     9 1   
    24     8    32 1   
    25     9    27 1   
    26     9    28 1   
    27     9    29 1   
    28    10    32 2   
    29    11    32 2   
    30    12    32 1   
    31    13    30 1   
    32    13    31 1   
@<TRIPOS>SUBSTRUCTURE
     1 8DH         1 TEMP              0 ****  ****    0 ROOT
