@<TRIPOS>MOLECULE
8DI
   40    43     1     0     0
SMALL
bcc


@<TRIPOS>ATOM
      1 C10          7.5840    33.8820    40.9160 cc         1 8DI       0.435800
      2 C13          4.8290    32.5350    40.9360 cy         1 8DI      -0.088400
      3 C17         10.0940    33.1460    43.2480 ca         1 8DI      -0.078000
      4 C20         11.5770    37.5190    44.1820 ca         1 8DI      -0.167000
      5 C21         12.6560    37.9010    43.3970 ca         1 8DI      -0.049000
      6 C22         13.7230    37.0390    43.1910 ca         1 8DI      -0.197000
      7 C05         11.4580    33.1320    42.9990 ca         1 8DI       0.088600
      8 C06         11.9730    33.4200    41.7260 ca         1 8DI      -0.094000
      9 C07         11.1460    33.7210    40.6610 ca         1 8DI      -0.131000
     10 C08          9.7820    33.7410    40.9180 ca         1 8DI      -0.076200
     11 C11          6.2320    34.0740    40.3330 cy         1 8DI      -0.114000
     12 C12          5.6690    32.7830    39.6700 cy         1 8DI      -0.076400
     13 C14          5.0730    33.9990    41.3460 cy         1 8DI      -0.076400
     14 C16          9.2460    33.4620    42.1880 ca         1 8DI       0.075400
     15 C18         12.6230    35.3920    44.5680 ca         1 8DI      -0.318500
     16 C19         11.5610    36.2640    44.7690 ca         1 8DI       0.000000
     17 C23         13.6940    35.7910    43.7800 ca         1 8DI       0.237900
     18 F24         14.7100    34.9550    43.5680 f          1 8DI      -0.119900
     19 N04         12.4130    32.8300    44.0140 nu         1 8DI      -0.744500
     20 N09          8.6940    34.0030    40.1370 na         1 8DI      -0.264300
     21 N15          7.8750    33.5600    42.1480 nd         1 8DI      -0.569100
     22 O01         13.8880    33.4670    45.9130 o          1 8DI      -0.608800
     23 O03         11.4460    33.7700    46.2260 o          1 8DI      -0.608800
     24 S02         12.5970    33.7950    45.3330 sy         1 8DI       1.319200
     25 H1           3.7960    32.2220    40.7890 hc         1 8DI       0.058200
     26 H2           5.3090    31.8340    41.6180 hc         1 8DI       0.058200
     27 H3           9.6950    32.9200    44.2280 ha         1 8DI       0.167000
     28 H5          12.6720    38.8790    42.9350 ha         1 8DI       0.137000
     29 H6          14.5690    37.3260    42.5800 ha         1 8DI       0.153000
     30 H7          13.0460    33.3980    41.5880 ha         1 8DI       0.148000
     31 H8          11.5490    33.9340    39.6800 ha         1 8DI       0.140000
     32 H9           6.2480    34.9530    39.6840 hc         1 8DI       0.064700
     33 H10          5.0520    33.0310    38.8060 hc         1 8DI       0.057950
     34 H11          6.3880    32.0190    39.3740 hc         1 8DI       0.057950
     35 H12          5.3140    34.2000    42.3890 hc         1 8DI       0.057950
     36 H13          4.2540    34.6510    41.0430 hc         1 8DI       0.057950
     37 H14         10.7200    35.9620    45.3770 ha         1 8DI       0.165000
     38 H15         12.6250    31.8540    44.1960 hn         1 8DI       0.451800
     39 H16          8.7030    34.2340    39.1550 hn         1 8DI       0.306700
     40 H4          10.7460    38.1940    44.3340 ha         1 8DI       0.143000
@<TRIPOS>BOND
     1     1    11 1   
     2     1    20 1   
     3     1    21 2   
     4     2    12 1   
     5     2    13 1   
     6     2    25 1   
     7     2    26 1   
     8     3     7 ar  
     9     3    14 ar  
    10     3    27 1   
    11     4     5 ar  
    12     4    16 ar  
    13     4    40 1   
    14     5     6 ar  
    15     5    28 1   
    16     6    17 ar  
    17     6    29 1   
    18     7     8 ar  
    19     7    19 1   
    20     8     9 ar  
    21     8    30 1   
    22     9    10 ar  
    23     9    31 1   
    24    10    14 ar  
    25    10    20 1   
    26    11    12 1   
    27    11    13 1   
    28    11    32 1   
    29    12    33 1   
    30    12    34 1   
    31    13    35 1   
    32    13    36 1   
    33    14    21 1   
    34    15    16 ar  
    35    15    17 ar  
    36    15    24 1   
    37    16    37 1   
    38    17    18 1   
    39    19    24 1   
    40    19    38 1   
    41    20    39 1   
    42    22    24 2   
    43    23    24 2   
@<TRIPOS>SUBSTRUCTURE
     1 8DI         1 TEMP              0 ****  ****    0 ROOT
