@<TRIPOS>MOLECULE
8DI
   40    43     1     0     0
SMALL
No Charge or Current Charge


@<TRIPOS>ATOM
      1 C10          6.8580    33.2770    41.5930 cc         1 8DI       0.435800
      2 C13          6.4600    32.2590    38.7670 cy         1 8DI      -0.088400
      3 C17          9.3170    33.6000    44.1180 ca         1 8DI      -0.060000
      4 C20         14.1420    36.9330    42.3590 ca         1 8DI      -0.149000
      5 C21         14.6630    35.7580    41.7920 ca         1 8DI      -0.031000
      6 C22         14.4870    34.5300    42.4520 ca         1 8DI      -0.179000
      7 C05         10.0870    34.7410    44.4370 ca         1 8DI       0.227000
      8 C06          9.8930    35.9420    43.7000 ca         1 8DI      -0.076000
      9 C07          8.9500    36.0000    42.6520 ca         1 8DI      -0.113000
     10 C08          8.2230    34.8400    42.3780 ca         1 8DI      -0.076200
     11 C11          5.8150    32.5590    40.7810 cy         1 8DI      -0.114000
     12 C12          5.3240    33.1270    39.3990 cy         1 8DI      -0.076400
     13 C14          6.1980    31.2790    39.9560 cy         1 8DI      -0.076400
     14 C16          8.3870    33.6810    43.0730 ca         1 8DI       0.075400
     15 C18         13.2750    35.6490    44.2420 ca         1 8DI      -0.318500
     16 C19         13.4480    36.8840    43.5800 ca         1 8DI       0.018000
     17 C23         13.7960    34.4750    43.6720 ca         1 8DI       0.273000
     18 F24         13.6330    33.2740    44.2710 f          1 8DI      -0.155000
     19 N04         11.0200    34.6500    45.4750 nu         1 8DI      -0.938100
     20 N09          7.2630    34.6020    41.4450 na         1 8DI      -0.314600
     21 N15          7.5380    32.6860    42.5980 nd         1 8DI      -0.569100
     22 O01         13.1080    34.7440    46.7470 o          1 8DI      -0.538000
     23 O03         11.8580    36.8990    46.1450 o          1 8DI      -0.538000
     24 S02         12.3830    35.5790    45.7880 sy         1 8DI       1.177600
     25 H1           6.2610    31.8640    37.7650 hc         1 8DI       0.058200
     26 H2           7.4520    32.7280    38.7680 hc         1 8DI       0.058200
     27 H3           9.4400    32.6710    44.6660 ha         1 8DI       0.149000
     28 H5          15.1990    35.7990    40.8460 ha         1 8DI       0.119000
     29 H6          14.8850    33.6170    42.0170 ha         1 8DI       0.135000
     30 H7          10.4640    36.8340    43.9350 ha         1 8DI       0.130000
     31 H8           8.7960    36.9150    42.0830 ha         1 8DI       0.122000
     32 H9           5.0020    32.3940    41.4960 hc         1 8DI       0.064700
     33 H10          4.3080    32.8220    39.1170 hc         1 8DI       0.057950
     34 H11          5.4090    34.2090    39.2550 hc         1 8DI       0.057950
     35 H12          7.0680    30.7170    40.3130 hc         1 8DI       0.057950
     36 H13          5.3720    30.5750    39.7940 hc         1 8DI       0.057950
     37 H14         13.0500    37.8060    44.0030 ha         1 8DI       0.147000
     38 H15         11.2240    33.7340    45.8540 hn         1 8DI       0.507000
     39 H16          6.9000    35.2560    40.7650 hn         1 8DI       0.357000
     40 H4          14.2750    37.8850    41.8500 ha         1 8DI       0.125000
@<TRIPOS>BOND
     1     1    11 1   
     2     1    20 1   
     3     1    21 2   
     4     2    12 1   
     5     2    13 1   
     6     2    25 1   
     7     2    26 1   
     8     3     7 ar  
     9     3    14 ar  
    10     3    27 1   
    11     4     5 ar  
    12     4    16 ar  
    13     4    40 1   
    14     5     6 ar  
    15     5    28 1   
    16     6    17 ar  
    17     6    29 1   
    18     7     8 ar  
    19     7    19 1   
    20     8     9 ar  
    21     8    30 1   
    22     9    10 ar  
    23     9    31 1   
    24    10    14 ar  
    25    10    20 1   
    26    11    12 1   
    27    11    13 1   
    28    11    32 1   
    29    12    33 1   
    30    12    34 1   
    31    13    35 1   
    32    13    36 1   
    33    14    21 1   
    34    15    16 ar  
    35    15    17 ar  
    36    15    24 1   
    37    16    37 1   
    38    17    18 1   
    39    19    24 1   
    40    19    38 1   
    41    20    39 1   
    42    22    24 2   
    43    23    24 2   
@<TRIPOS>SUBSTRUCTURE
     1 8DI         1 TEMP              0 ****  ****    0 ROOT
