@<TRIPOS>MOLECULE
8DK
   52    56     1     0     0
SMALL
No Charge or Current Charge


@<TRIPOS>ATOM
      1 C10         12.1050   -43.2600    16.8160 ca         1 8DK      -0.086000
      2 C13         13.8080   -44.2520    18.2710 ca         1 8DK      -0.082000
      3 C15         13.6250   -43.1710    19.1430 ca         1 8DK       0.055100
      4 C17         13.7370   -41.6910    20.7830 c5         1 8DK       0.372600
      5 C21         14.0290   -44.5540    13.9060 c          1 8DK       0.591100
      6 C22         15.2970   -44.3290    13.0600 c3         1 8DK       0.000000
      7 C26         12.9860   -42.6990     6.7250 ca         1 8DK      -0.089000
      8 C28         13.7320   -42.8940     4.4060 ca         1 8DK      -0.065300
      9 C01         14.8420   -41.6440    10.4280 cc         1 8DK       0.083500
     10 C02         14.5600   -42.4360     9.3640 cd         1 8DK       0.109400
     11 C03         15.1150   -42.2120    11.7560 c          1 8DK       0.516500
     12 C06         14.7540   -44.3410    10.6180 cc         1 8DK       0.535800
     13 C11         13.0350   -44.2960    17.0870 ca         1 8DK      -0.110300
     14 C12         11.9430   -42.1860    17.7170 ca         1 8DK      -0.097000
     15 C14         12.7270   -42.1770    18.8760 ca         1 8DK       0.060100
     16 C19         13.2050   -45.4470    16.1080 c3         1 8DK       0.160300
     17 C25         14.1540   -41.9870     7.0520 ca         1 8DK       0.001800
     18 C27         12.7780   -43.1500     5.4120 ca         1 8DK      -0.103000
     19 C29         15.1070   -41.7250     6.0490 ca         1 8DK      -0.086000
     20 C30         14.9070   -42.1740     4.7280 ca         1 8DK      -0.069300
     21 C31         15.9640   -41.8730     3.6690 c3         1 8DK      -0.047800
     22 N04         14.5030   -43.8310     9.4060 nd         1 8DK      -0.607100
     23 N05         15.0620   -43.6140    11.7700 n          1 8DK      -0.325300
     24 N07         14.8340   -40.3130    10.0630 nc         1 8DK      -0.277000
     25 N08         14.5640   -40.2360     8.7720 nd         1 8DK      -0.171800
     26 N09         14.3630   -41.5260     8.3530 na         1 8DK       0.219000
     27 N20         14.2490   -45.1580    15.1240 ns         1 8DK      -0.502900
     28 O16         12.6960   -41.2300    19.8480 os         1 8DK      -0.342100
     29 O18         14.2770   -42.9790    20.3180 os         1 8DK      -0.341100
     30 O23         12.9100   -44.2350    13.5280 o          1 8DK      -0.575100
     31 H1          11.5100   -43.2890    15.9050 ha         1 8DK       0.120000
     32 H2          14.5290   -45.0310    18.5040 ha         1 8DK       0.128000
     33 H3          14.5450   -40.9510    20.8140 h2         1 8DK       0.064200
     34 H4          13.3030   -41.8150    21.7820 h2         1 8DK       0.064200
     35 H5          15.7360   -45.3140    12.8580 h1         1 8DK       0.077200
     36 H6          16.0180   -43.7770    13.6740 h1         1 8DK       0.077200
     37 H7          12.2390   -42.9040     7.4900 ha         1 8DK       0.137000
     38 H8          14.7280   -45.4140    10.7630 h5         1 8DK       0.052800
     39 H9          11.2310   -41.3890    17.5190 ha         1 8DK       0.135000
     40 H10         12.2550   -45.6470    15.5940 h1         1 8DK       0.057200
     41 H11         13.4810   -46.3590    16.6540 h1         1 8DK       0.057200
     42 H12         11.8700   -43.7020     5.1770 ha         1 8DK       0.118000
     43 H13         16.0080   -41.1690     6.3020 ha         1 8DK       0.135000
     44 H14         15.5440   -41.2780     2.8500 hc         1 8DK       0.045367
     45 H15         16.8070   -41.3080     4.0830 hc         1 8DK       0.045367
     46 H16         16.3700   -42.7980     3.2420 hc         1 8DK       0.045367
     47 H17         14.2660   -44.0880     2.6670 hc         1 8DK       0.044700
     48 H18         12.5240   -43.9370     2.9130 hc         1 8DK       0.044700
     49 H19         13.4390   -42.5680     2.2750 hc         1 8DK       0.044700
     50 H20         15.2070   -45.3900    15.3600 hn         1 8DK       0.317500
     51 O24         15.3660   -41.5450    12.7540 o          1 8DK      -0.489000
     52 C32         13.4760   -43.3990     2.9890 c3         1 8DK      -0.048800
@<TRIPOS>BOND
     1     1    13 ar  
     2     1    14 ar  
     3     1    31 1   
     4     2     3 ar  
     5     2    13 ar  
     6     2    32 1   
     7     3    15 ar  
     8     3    29 1   
     9     4    28 1   
    10     4    29 1   
    11     4    33 1   
    12     4    34 1   
    13     5     6 1   
    14     5    27 1   
    15     5    30 2   
    16     6    23 1   
    17     6    35 1   
    18     6    36 1   
    19     7    17 ar  
    20     7    18 ar  
    21     7    37 1   
    22     8    18 ar  
    23     8    20 ar  
    24     8    52 1   
    25     9    10 2   
    26     9    11 1   
    27     9    24 1   
    28    10    22 1   
    29    10    26 1   
    30    11    23 1   
    31    11    51 2   
    32    12    22 2   
    33    12    23 1   
    34    12    38 1   
    35    13    16 1   
    36    14    15 ar  
    37    14    39 1   
    38    15    28 1   
    39    16    27 1   
    40    16    40 1   
    41    16    41 1   
    42    17    19 ar  
    43    17    26 1   
    44    18    42 1   
    45    19    20 ar  
    46    19    43 1   
    47    20    21 1   
    48    21    44 1   
    49    21    45 1   
    50    21    46 1   
    51    24    25 2   
    52    25    26 1   
    53    27    50 1   
    54    47    52 1   
    55    48    52 1   
    56    49    52 1   
@<TRIPOS>SUBSTRUCTURE
     1 8DK         1 TEMP              0 ****  ****    0 ROOT
