@<TRIPOS>MOLECULE
8DK
   52    56     1     0     0
SMALL
abcg2


@<TRIPOS>ATOM
      1 C10         11.6530   -43.6640    16.8000 ca         1 8DK      -0.086000
      2 C13         14.0190   -43.4450    17.2530 ca         1 8DK      -0.082000
      3 C15         13.7520   -42.1890    17.7330 ca         1 8DK       0.055100
      4 C17         13.8200   -40.2300    18.7680 c5         1 8DK       0.372600
      5 C21         14.0860   -45.2870    14.0410 c          1 8DK       0.591100
      6 C22         15.3090   -45.5180    13.1580 c3         1 8DK       0.000000
      7 C26         13.3120   -43.0710     7.2140 ca         1 8DK      -0.089000
      8 C28         13.6630   -42.4310     4.9000 ca         1 8DK      -0.065300
      9 C01         15.2930   -42.5530    10.9960 cc         1 8DK       0.083500
     10 C02         14.8850   -43.2030     9.8530 cd         1 8DK       0.109400
     11 C03         15.4770   -43.2890    12.2120 c          1 8DK       0.516500
     12 C06         14.8460   -45.1800    10.8040 cc         1 8DK       0.535800
     13 C11         12.9320   -44.1970    16.7780 ca         1 8DK      -0.110300
     14 C12         11.3920   -42.3800    17.2970 ca         1 8DK      -0.097000
     15 C14         12.4670   -41.6650    17.7560 ca         1 8DK       0.060100
     16 C19         13.1640   -45.6020    16.2780 c3         1 8DK       0.160300
     17 C25         14.4010   -42.2970     7.5780 ca         1 8DK       0.001800
     18 C27         12.9620   -43.1330     5.8740 ca         1 8DK      -0.103000
     19 C29         15.1210   -41.5890     6.6260 ca         1 8DK      -0.086000
     20 C30         14.7570   -41.6400     5.2860 ca         1 8DK      -0.069300
     21 C31         15.5330   -40.8630     4.2660 c3         1 8DK      -0.047800
     22 N04         14.6570   -44.5210     9.7090 nd         1 8DK      -0.607100
     23 N05         15.2440   -44.6600    11.9940 n          1 8DK      -0.325300
     24 N07         15.4230   -41.2340    10.7250 nc         1 8DK      -0.277000
     25 N08         15.1200   -41.0460     9.4990 nd         1 8DK      -0.171800
     26 N09         14.7870   -42.2210     8.9370 na         1 8DK       0.219000
     27 N20         14.2300   -45.7010    15.3050 ns         1 8DK      -0.502900
     28 O16         12.5070   -40.4050    18.2550 os         1 8DK      -0.342100
     29 O18         14.6190   -41.2690    18.2200 os         1 8DK      -0.341100
     30 O23         13.0640   -44.8060    13.5900 o          1 8DK      -0.575100
     31 H1          10.8260   -44.2540    16.4240 ha         1 8DK       0.120000
     32 H2          15.0270   -43.8390    17.2400 ha         1 8DK       0.128000
     33 H3          14.2110   -39.2600    18.4590 h2         1 8DK       0.064200
     34 H4          13.8070   -40.3080    19.8610 h2         1 8DK       0.064200
     35 H5          15.3140   -46.5580    12.8290 h1         1 8DK       0.077200
     36 H6          16.2390   -45.3480    13.6990 h1         1 8DK       0.077200
     37 H7          12.7360   -43.6100     7.9530 ha         1 8DK       0.137000
     38 H8          14.6880   -46.2520    10.7980 h5         1 8DK       0.052800
     39 H9          10.3890   -41.9730    17.3040 ha         1 8DK       0.135000
     40 H10         12.2420   -46.0010    15.8540 h1         1 8DK       0.057200
     41 H11         13.4370   -46.2540    17.1080 h1         1 8DK       0.057200
     42 H12         12.1120   -43.7380     5.5820 ha         1 8DK       0.118000
     43 H13         15.9760   -40.9970     6.9280 ha         1 8DK       0.135000
     44 H14         14.8960   -40.1440     3.7470 hc         1 8DK       0.045367
     45 H15         16.3520   -40.3110     4.7240 hc         1 8DK       0.045367
     46 H16         15.9550   -41.5180     3.5010 hc         1 8DK       0.045367
     47 H17         14.0680   -42.8910     2.8360 hc         1 8DK       0.044700
     48 H18         12.4000   -43.1760     3.3290 hc         1 8DK       0.044700
     49 H19         12.9840   -41.5340     3.0650 hc         1 8DK       0.044700
     50 H20         15.1240   -46.0500    15.6120 hn         1 8DK       0.317500
     51 O24         15.7850   -42.8700    13.3060 o          1 8DK      -0.489000
     52 C32         13.2550   -42.5150     3.4600 c3         1 8DK      -0.048800
@<TRIPOS>BOND
     1     1    13 ar  
     2     1    14 ar  
     3     1    31 1   
     4     2     3 ar  
     5     2    13 ar  
     6     2    32 1   
     7     3    15 ar  
     8     3    29 1   
     9     4    28 1   
    10     4    29 1   
    11     4    33 1   
    12     4    34 1   
    13     5     6 1   
    14     5    27 1   
    15     5    30 2   
    16     6    23 1   
    17     6    35 1   
    18     6    36 1   
    19     7    17 ar  
    20     7    18 ar  
    21     7    37 1   
    22     8    18 ar  
    23     8    20 ar  
    24     8    52 1   
    25     9    10 2   
    26     9    11 1   
    27     9    24 1   
    28    10    22 1   
    29    10    26 1   
    30    11    23 1   
    31    11    51 2   
    32    12    22 2   
    33    12    23 1   
    34    12    38 1   
    35    13    16 1   
    36    14    15 ar  
    37    14    39 1   
    38    15    28 1   
    39    16    27 1   
    40    16    40 1   
    41    16    41 1   
    42    17    19 ar  
    43    17    26 1   
    44    18    42 1   
    45    19    20 ar  
    46    19    43 1   
    47    20    21 1   
    48    21    44 1   
    49    21    45 1   
    50    21    46 1   
    51    24    25 2   
    52    25    26 1   
    53    27    50 1   
    54    47    52 1   
    55    48    52 1   
    56    49    52 1   
@<TRIPOS>SUBSTRUCTURE
     1 8DK         1 TEMP              0 ****  ****    0 ROOT
