@<TRIPOS>MOLECULE
8DM
   31    31     1     0     0
SMALL
abcg2


@<TRIPOS>ATOM
      1 C4           4.6050     0.9390    -0.4050 ca         1 8DM       0.278000
      2 C2           3.2980    -0.7140     0.7810 ca         1 8DM      -0.038500
      3 C6           2.1870     1.0120    -0.4380 ca         1 8DM      -0.038500
      4 C5           3.4060     1.5410    -0.8140 ca         1 8DM      -0.200500
      5 C1           2.1020    -0.1310     0.3590 ca         1 8DM      -0.144600
      6 C3           4.5240    -0.2020     0.4060 ca         1 8DM      -0.200500
      7 N4           5.8160     1.4240    -0.8190 nv         1 8DM      -1.096000
      8 C            0.8160    -0.7380     0.7990 c          1 8DM       0.600700
      9 O            0.7740    -1.5070     1.7560 o          1 8DM      -0.643100
     10 N           -0.2840    -0.3770     0.1180 ns         1 8DM      -0.420900
     11 CA          -1.5680    -1.0020     0.3410 c3         1 8DM      -0.051300
     12 CT          -1.6350    -2.4460    -0.2190 c          1 8DM       0.717000
     13 O1          -0.7230    -2.8190    -0.9760 o          1 8DM      -0.743000
     14 O2          -2.6360    -3.1010     0.1350 o          1 8DM      -0.743000
     15 CB          -2.6730    -0.1310    -0.2600 c3         1 8DM      -0.053400
     16 CG          -2.7830     1.2380     0.3900 c3         1 8DM      -0.201400
     17 CD          -3.9110     2.1420    -0.1390 c          1 8DM       0.712000
     18 OE1         -3.9360     3.3040     0.3200 o          1 8DM      -0.761500
     19 OE2         -4.7120     1.6590    -0.9630 o          1 8DM      -0.761500
     20 H1           3.2690    -1.5930     1.4130 ha         1 8DM       0.129500
     21 H2           1.2930     1.5320    -0.7610 ha         1 8DM       0.129500
     22 H3           3.4360     2.4340    -1.4260 ha         1 8DM       0.094000
     23 H4           5.4330    -0.6870     0.7400 ha         1 8DM       0.094000
     24 H5           5.8380     2.3750    -1.1490 hn         1 8DM       0.437500
     25 H6           6.6180     1.1870    -0.2570 hn         1 8DM       0.437500
     26 H7          -0.1570     0.0580    -0.7820 hn         1 8DM       0.294500
     27 H8          -1.7300    -1.0590     1.4210 h1         1 8DM       0.057700
     28 H10         -2.5070    -0.0270    -1.3380 hc         1 8DM       0.049200
     29 H11         -3.6150    -0.6680    -0.1510 hc         1 8DM       0.049200
     30 H12         -2.9340     1.1120     1.4690 hc         1 8DM       0.010700
     31 H13         -1.8390     1.7840     0.3000 hc         1 8DM       0.010700
@<TRIPOS>BOND
     1     1     4 ar  
     2     1     6 ar  
     3     1     7 1   
     4     2     5 ar  
     5     2     6 ar  
     6     2    20 1   
     7     3     4 ar  
     8     3     5 ar  
     9     3    21 1   
    10     4    22 1   
    11     5     8 1   
    12     6    23 1   
    13     7    24 1   
    14     7    25 1   
    15     8     9 2   
    16     8    10 1   
    17    10    11 1   
    18    10    26 1   
    19    11    12 1   
    20    11    15 1   
    21    11    27 1   
    22    12    13 1   
    23    12    14 1   
    24    15    16 1   
    25    15    28 1   
    26    15    29 1   
    27    16    17 1   
    28    16    30 1   
    29    16    31 1   
    30    17    18 1   
    31    17    19 1   
@<TRIPOS>SUBSTRUCTURE
     1 8DM         1 TEMP              0 ****  ****    0 ROOT
