@<TRIPOS>MOLECULE
8DM
   31    31     1     0     0
SMALL
No Charge or Current Charge


@<TRIPOS>ATOM
      1 C4           4.6040     0.9680    -0.2970 ca         1 8DM       0.278000
      2 C2           2.9870     0.1990     1.3480 ca         1 8DM      -0.038500
      3 C6           2.3770     0.2820    -1.0050 ca         1 8DM      -0.038500
      4 C5           3.6610     0.7680    -1.3120 ca         1 8DM      -0.200500
      5 C1           2.0220    -0.0100     0.3360 ca         1 8DM      -0.144600
      6 C3           4.2680     0.6850     1.0310 ca         1 8DM      -0.200500
      7 N4           5.8480     1.4410    -0.6020 nv         1 8DM      -1.096000
      8 C            0.6500    -0.5350     0.7140 c          1 8DM       0.600700
      9 O            0.3490    -0.7790     1.8760 o          1 8DM      -0.643100
     10 N           -0.2420    -0.7320    -0.3230 ns         1 8DM      -0.420900
     11 CA          -1.6440    -1.1980    -0.1850 c3         1 8DM      -0.051300
     12 CT          -1.9730    -2.2390    -1.2980 c          1 8DM       0.717000
     13 O1          -1.6910    -1.9630    -2.4580 o          1 8DM      -0.743000
     14 O2          -2.4140    -3.3280    -0.9600 o          1 8DM      -0.743000
     15 CB          -2.6580    -0.0220    -0.2000 c3         1 8DM      -0.053400
     16 CG          -2.5000     0.9880     0.9670 c3         1 8DM      -0.201400
     17 CD          -3.6230     2.0400     0.9130 c          1 8DM       0.712000
     18 OE1         -3.4390     3.0500     0.2500 o          1 8DM      -0.761500
     19 OE2         -4.6700     1.7990     1.4940 o          1 8DM      -0.761500
     20 H1           2.7470    -0.0150     2.3880 ha         1 8DM       0.129500
     21 H2           1.6740     0.1410    -1.8210 ha         1 8DM       0.129500
     22 H3           3.9170     0.9860    -2.3450 ha         1 8DM       0.094000
     23 H4           4.9940     0.8380     1.8240 ha         1 8DM       0.094000
     24 H5           6.0430     1.7810    -1.5420 hn         1 8DM       0.437500
     25 H6           6.4810     1.7220     0.1440 hn         1 8DM       0.437500
     26 H7           0.0930    -0.5390    -1.2570 hn         1 8DM       0.294500
     27 H8          -1.7440    -1.7230     0.7740 h1         1 8DM       0.057700
     28 H10         -2.5780     0.5130    -1.1540 hc         1 8DM       0.049200
     29 H11         -3.6710    -0.4420    -0.1640 hc         1 8DM       0.049200
     30 H12         -2.5730     0.3950     1.8880 hc         1 8DM       0.010700
     31 H13         -1.5230     1.4670     0.8270 hc         1 8DM       0.010700
@<TRIPOS>BOND
     1     1     4 ar  
     2     1     6 ar  
     3     1     7 1   
     4     2     5 ar  
     5     2     6 ar  
     6     2    20 1   
     7     3     4 ar  
     8     3     5 ar  
     9     3    21 1   
    10     4    22 1   
    11     5     8 1   
    12     6    23 1   
    13     7    24 1   
    14     7    25 1   
    15     8     9 2   
    16     8    10 1   
    17    10    11 1   
    18    10    26 1   
    19    11    12 1   
    20    11    15 1   
    21    11    27 1   
    22    12    13 1   
    23    12    14 1   
    24    15    16 1   
    25    15    28 1   
    26    15    29 1   
    27    16    17 1   
    28    16    30 1   
    29    16    31 1   
    30    17    18 1   
    31    17    19 1   
@<TRIPOS>SUBSTRUCTURE
     1 8DM         1 TEMP              0 ****  ****    0 ROOT
