@<TRIPOS>MOLECULE
8DN
   27    28     1     0     0
SMALL
abcg2


@<TRIPOS>ATOM
      1 C1         -14.2390    20.4410    -9.2870 c3         1 8DN      -0.110400
      2 C2         -15.4600    20.1190   -10.0740 cc         1 8DN       0.209300
      3 C6         -15.8120    18.9550   -10.7060 cd         1 8DN      -0.208000
      4 N3         -16.4600    21.0080   -10.2760 nc         1 8DN      -0.360000
      5 N4         -17.3870    20.4650   -10.9840 nd         1 8DN      -0.193800
      6 N5         -17.0160    19.2220   -11.2540 na         1 8DN       0.223000
      7 C7         -17.8420    18.3700   -12.0240 ca         1 8DN       0.007800
      8 C8         -19.2210    18.4940   -11.9290 ca         1 8DN      -0.109500
      9 C9         -20.0390    17.6600   -12.6830 ca         1 8DN      -0.058300
     10 C10        -19.4480    16.7090   -13.5120 ca         1 8DN      -0.109000
     11 C11        -18.0670    16.5780   -13.6080 ca         1 8DN      -0.058300
     12 C12        -17.2600    17.4270   -12.8560 ca         1 8DN      -0.109500
     13 C13        -17.4530    15.5710   -14.5360 c3         1 8DN      -0.049300
     14 C14        -21.5320    17.7560   -12.5710 c3         1 8DN      -0.049300
     15 H1         -14.3100    21.4460    -8.8740 hc         1 8DN       0.048367
     16 H2         -14.1030    19.7460    -8.4590 hc         1 8DN       0.048367
     17 H3         -13.3410    20.3950    -9.9030 hc         1 8DN       0.048367
     18 H4         -15.3310    17.9950   -10.7810 h4         1 8DN       0.168000
     19 H5         -19.6580    19.2290   -11.2650 ha         1 8DN       0.132000
     20 H6         -20.0830    16.0530   -14.0980 ha         1 8DN       0.116000
     21 H7         -16.1820    17.3560   -12.9380 ha         1 8DN       0.132000
     22 H8         -17.2840    16.0060   -15.5230 hc         1 8DN       0.047033
     23 H9         -16.4900    15.2210   -14.1670 hc         1 8DN       0.047033
     24 H10        -18.1010    14.7060   -14.6700 hc         1 8DN       0.047033
     25 H11        -21.9060    17.0820   -11.7980 hc         1 8DN       0.047033
     26 H12        -21.8490    18.7640   -12.3050 hc         1 8DN       0.047033
     27 H13        -22.0200    17.4800   -13.5040 hc         1 8DN       0.047033
@<TRIPOS>BOND
     1     1     2 1   
     2     1    15 1   
     3     1    16 1   
     4     1    17 1   
     5     2     3 2   
     6     2     4 1   
     7     3     6 1   
     8     3    18 1   
     9     4     5 2   
    10     5     6 1   
    11     6     7 1   
    12     7     8 ar  
    13     7    12 ar  
    14     8     9 ar  
    15     8    19 1   
    16     9    10 ar  
    17     9    14 1   
    18    10    11 ar  
    19    10    20 1   
    20    11    12 ar  
    21    11    13 1   
    22    12    21 1   
    23    13    22 1   
    24    13    23 1   
    25    13    24 1   
    26    14    25 1   
    27    14    26 1   
    28    14    27 1   
@<TRIPOS>SUBSTRUCTURE
     1 8DN         1 TEMP              0 ****  ****    0 ROOT
