@<TRIPOS>MOLECULE
8DN
   27    28     1     0     0
SMALL
No Charge or Current Charge


@<TRIPOS>ATOM
      1 C1         -14.3510    20.2840    -9.1690 c3         1 8DN      -0.110400
      2 C2         -15.4720    20.1260   -10.1550 cc         1 8DN       0.209300
      3 C6         -15.9860    18.9680   -10.6560 cd         1 8DN      -0.208000
      4 N3         -16.1270    21.2200   -10.6640 nc         1 8DN      -0.360000
      5 N4         -17.0640    20.8030   -11.4830 nd         1 8DN      -0.193800
      6 N5         -16.9570    19.4430   -11.4980 na         1 8DN       0.223000
      7 C7         -17.7770    18.5190   -12.1480 ca         1 8DN       0.007800
      8 C8         -19.1730    18.5670   -11.9700 ca         1 8DN      -0.109500
      9 C9         -20.0080    17.6430   -12.6240 ca         1 8DN      -0.058300
     10 C10        -19.4390    16.6630   -13.4580 ca         1 8DN      -0.109000
     11 C11        -18.0450    16.6060   -13.6450 ca         1 8DN      -0.058300
     12 C12        -17.2190    17.5380   -12.9910 ca         1 8DN      -0.109500
     13 C13        -17.4370    15.5490   -14.5550 c3         1 8DN      -0.049300
     14 C14        -21.5150    17.6980   -12.4240 c3         1 8DN      -0.049300
     15 H1         -14.7020    20.7810    -8.2570 hc         1 8DN       0.048367
     16 H2         -13.9370    19.3090    -8.8860 hc         1 8DN       0.048367
     17 H3         -13.5390    20.8850    -9.5950 hc         1 8DN       0.048367
     18 H4         -15.7540    17.9250   -10.4900 h4         1 8DN       0.168000
     19 H5         -19.6090    19.3230   -11.3200 ha         1 8DN       0.132000
     20 H6         -20.0810    15.9460   -13.9640 ha         1 8DN       0.116000
     21 H7         -16.1410    17.5010   -13.1410 ha         1 8DN       0.132000
     22 H8         -17.3470    15.9230   -15.5810 hc         1 8DN       0.047033
     23 H9         -16.4360    15.2570   -14.2150 hc         1 8DN       0.047033
     24 H10        -18.0520    14.6410   -14.5810 hc         1 8DN       0.047033
     25 H11        -21.8180    17.0840   -11.5670 hc         1 8DN       0.047033
     26 H12        -21.8580    18.7230   -12.2400 hc         1 8DN       0.047033
     27 H13        -22.0500    17.3270   -13.3070 hc         1 8DN       0.047033
@<TRIPOS>BOND
     1     1     2 1   
     2     1    15 1   
     3     1    16 1   
     4     1    17 1   
     5     2     3 2   
     6     2     4 1   
     7     3     6 1   
     8     3    18 1   
     9     4     5 2   
    10     5     6 1   
    11     6     7 1   
    12     7     8 ar  
    13     7    12 ar  
    14     8     9 ar  
    15     8    19 1   
    16     9    10 ar  
    17     9    14 1   
    18    10    11 ar  
    19    10    20 1   
    20    11    12 ar  
    21    11    13 1   
    22    12    21 1   
    23    13    22 1   
    24    13    23 1   
    25    13    24 1   
    26    14    25 1   
    27    14    26 1   
    28    14    27 1   
@<TRIPOS>SUBSTRUCTURE
     1 8DN         1 TEMP              0 ****  ****    0 ROOT
