@<TRIPOS>MOLECULE
8DP
   48    50     1     0     0
SMALL
abcg2


@<TRIPOS>ATOM
      1 C4          -0.2200     1.4190    -0.6330 c          1 8DP       0.529100
      2 C5           0.4950     1.2380     0.6880 c3         1 8DP      -0.056400
      3 C8           4.3770     3.0590     0.3320 ca         1 8DP       0.426000
      4 N3           3.9930    -1.0440     0.2240 nc         1 8DP      -0.509000
      5 C2          -2.5360     0.4780    -0.5430 c3         1 8DP       0.117300
      6 N2           4.5140     4.3850     0.3440 nv         1 8DP      -1.108000
      7 N1           1.7200     0.4890     0.5190 na         1 8DP      -0.003000
      8 C6           2.9410     1.1160     0.4090 ca         1 8DP       0.088000
      9 O6          -2.0330     2.5850    -1.6800 oh         1 8DP      -0.643000
     10 N4           0.4020    -1.3900     0.3680 nc         1 8DP      -0.481400
     11 C12          4.0870     0.2790     0.2840 ca         1 8DP       0.103000
     12 C13          1.6030    -0.8590     0.3780 cd         1 8DP       0.127000
     13 C14          2.8130    -1.6010     0.2580 cd         1 8DP       0.179500
     14 C15          2.7120    -3.0610     0.1580 c          1 8DP       0.493500
     15 C16          0.2690    -2.7440     0.2710 c          1 8DP       0.717400
     16 C1          -4.0180     0.8190    -0.4720 c3         1 8DP       0.232600
     17 C3          -1.6950     1.7830    -0.5880 c3         1 8DP       0.045300
     18 C7           3.0990     2.4880     0.4230 ca         1 8DP      -0.285000
     19 C9           5.5440     2.2280     0.2220 ca         1 8DP      -0.196300
     20 O1          -6.5160    -2.0610    -0.1680 o          1 8DP      -0.823000
     21 P1          -5.3650    -1.3230     0.4390 p5         1 8DP       1.381800
     22 O2          -5.5140    -0.5590     1.7200 o          1 8DP      -0.823000
     23 O3          -4.1410    -2.4000     0.5480 oh         1 8DP      -0.766400
     24 O4          -4.8310    -0.3010    -0.7440 os         1 8DP      -0.595400
     25 O5          -2.2090    -0.3090     0.5770 oh         1 8DP      -0.677000
     26 O7           0.3580     1.2870    -1.6820 o          1 8DP      -0.518100
     27 C10          6.9000     2.8520     0.1260 c3         1 8DP      -0.037800
     28 C11          5.3670     0.8810     0.2000 ca         1 8DP       0.036000
     29 O8           3.6640    -3.8070     0.0680 o          1 8DP      -0.511000
     30 N5           1.4210    -3.5140     0.1770 ns         1 8DP      -0.495500
     31 O9          -0.8180    -3.2880     0.2650 o          1 8DP      -0.464000
     32 H1           0.7030     2.2240     1.1030 h1         1 8DP       0.102700
     33 H2          -0.1390     0.7510     1.4270 h1         1 8DP       0.102700
     34 H3          -2.3450    -0.0690    -1.4790 h1         1 8DP       0.047700
     35 H4           5.4110     4.8310     0.2640 hn         1 8DP       0.495000
     36 H5           3.7150     4.9900     0.4250 hn         1 8DP       0.495000
     37 H6          -1.7530     2.1440    -2.4920 ho         1 8DP       0.458000
     38 H7          -1.3300    -0.7260     0.4590 ho         1 8DP       0.477000
     39 H8          -4.2420     1.2470     0.5110 h1         1 8DP       0.041700
     40 H9          -4.2470     1.5750    -1.2240 h1         1 8DP       0.041700
     41 H10         -1.8980     2.3640     0.3190 h1         1 8DP       0.093700
     42 H11          2.2570     3.1620     0.4840 ha         1 8DP       0.127000
     43 H14         -3.2940    -1.9470     0.6930 ho         1 8DP       0.435000
     44 H15          7.1300     3.4550     1.0070 hc         1 8DP       0.041033
     45 H16          7.6700     2.0880     0.0400 hc         1 8DP       0.041033
     46 H17          6.9820     3.5040    -0.7470 hc         1 8DP       0.041033
     47 H18          6.2180     0.2180     0.1110 ha         1 8DP       0.137000
     48 H19          1.2850    -4.5160     0.1140 hn         1 8DP       0.339500
@<TRIPOS>BOND
     1     1     2 1   
     2     1    17 1   
     3     1    26 2   
     4     2     7 1   
     5     2    32 1   
     6     2    33 1   
     7     3     6 1   
     8     3    18 ar  
     9     3    19 ar  
    10     4    11 1   
    11     4    13 2   
    12     5    16 1   
    13     5    17 1   
    14     5    25 1   
    15     5    34 1   
    16     6    35 1   
    17     6    36 1   
    18     7     8 1   
    19     7    12 1   
    20     8    11 ar  
    21     8    18 ar  
    22     9    17 1   
    23     9    37 1   
    24    10    12 2   
    25    10    15 1   
    26    11    28 ar  
    27    12    13 1   
    28    13    14 1   
    29    14    29 2   
    30    14    30 1   
    31    15    30 1   
    32    15    31 2   
    33    16    24 1   
    34    16    39 1   
    35    16    40 1   
    36    17    41 1   
    37    18    42 1   
    38    19    27 1   
    39    19    28 ar  
    40    20    21 1   
    41    21    22 1   
    42    21    23 1   
    43    21    24 1   
    44    23    43 1   
    45    25    38 1   
    46    27    44 1   
    47    27    45 1   
    48    27    46 1   
    49    28    47 1   
    50    30    48 1   
@<TRIPOS>SUBSTRUCTURE
     1 8DP         1 TEMP              0 ****  ****    0 ROOT
