@<TRIPOS>MOLECULE
8DP
   48    50     1     0     0
SMALL
No Charge or Current Charge


@<TRIPOS>ATOM
      1 C4          -0.2720     1.5300    -0.6370 c          1 8DP       0.529100
      2 C5           0.5160     1.1900     0.6360 c3         1 8DP      -0.056400
      3 C8           4.4130     3.0490     0.2380 ca         1 8DP       0.426000
      4 N3           4.2640    -1.1710     0.3280 nc         1 8DP      -0.509000
      5 C2          -2.6020     0.4010    -0.6340 c3         1 8DP       0.117300
      6 N2           4.4610     4.4090     0.1650 nv         1 8DP      -1.108000
      7 N1           1.7620     0.4180     0.3660 na         1 8DP      -0.003000
      8 C6           3.0380     1.0180     0.3180 ca         1 8DP       0.088000
      9 O6          -2.2910     2.7130    -1.4550 oh         1 8DP      -0.643000
     10 N4           0.6430    -1.5720     0.0620 nc         1 8DP      -0.481400
     11 C12          4.2240     0.2320     0.3490 ca         1 8DP       0.103000
     12 C13          1.8220    -0.9700     0.1950 cd         1 8DP       0.127000
     13 C14          3.0520    -1.7290     0.2020 cd         1 8DP       0.179500
     14 C15          2.9490    -3.2200     0.0640 c          1 8DP       0.493500
     15 C16          0.5180    -2.9390    -0.0810 c          1 8DP       0.717400
     16 C1          -4.1470     0.6220    -0.6070 c3         1 8DP       0.232600
     17 C3          -1.8090     1.7380    -0.4900 c3         1 8DP       0.045300
     18 C7           3.1640     2.4280     0.2330 ca         1 8DP      -0.285000
     19 C9           5.5860     2.2850     0.3190 ca         1 8DP      -0.196300
     20 O1          -6.3380    -2.4060     0.5320 o          1 8DP      -0.823000
     21 P1          -5.6710    -1.0900     0.7290 p5         1 8DP       1.381800
     22 O2          -6.6160    -0.0300     1.1740 o          1 8DP      -0.823000
     23 O3          -4.4790    -1.2450     1.7550 oh         1 8DP      -0.766400
     24 O4          -4.8170    -0.6520    -0.5580 os         1 8DP      -0.595400
     25 O5          -2.2110    -0.5240     0.3990 oh         1 8DP      -0.677000
     26 O7           0.2810     1.6770    -1.7240 o          1 8DP      -0.518100
     27 C10          6.9730     2.9310     0.3320 c3         1 8DP      -0.037800
     28 C11          5.4740     0.8840     0.3670 ca         1 8DP       0.036000
     29 O8           3.8880    -4.0060     0.0580 o          1 8DP      -0.511000
     30 N5           1.6640    -3.6690    -0.0680 ns         1 8DP      -0.495500
     31 O9          -0.5660    -3.4740    -0.2120 o          1 8DP      -0.464000
     32 H1           0.7270     2.1160     1.1800 h1         1 8DP       0.102700
     33 H2          -0.1260     0.5990     1.2970 h1         1 8DP       0.102700
     34 H3          -2.3590    -0.0310    -1.6150 h1         1 8DP       0.047700
     35 H4           5.3410     4.8750     0.3690 hn         1 8DP       0.495000
     36 H5           3.6120     4.9440     0.3270 hn         1 8DP       0.495000
     37 H6          -1.7050     2.6550    -2.2470 ho         1 8DP       0.458000
     38 H7          -1.4720    -1.0790     0.0510 ho         1 8DP       0.477000
     39 H8          -4.4050     1.2460     0.2590 h1         1 8DP       0.041700
     40 H9          -4.4530     1.1690    -1.5090 h1         1 8DP       0.041700
     41 H10         -1.9790     2.1170     0.5270 h1         1 8DP       0.093700
     42 H11          2.2910     3.0650     0.1490 ha         1 8DP       0.127000
     43 H14         -3.7680    -0.9970     1.1220 ho         1 8DP       0.435000
     44 H15          7.0950     3.5870     1.2020 hc         1 8DP       0.041033
     45 H16          7.7720     2.1820     0.3750 hc         1 8DP       0.041033
     46 H17          7.1390     3.5310    -0.5710 hc         1 8DP       0.041033
     47 H18          6.3760     0.2770     0.4020 ha         1 8DP       0.137000
     48 H19          1.5450    -4.6650    -0.1690 hn         1 8DP       0.339500
@<TRIPOS>BOND
     1     1     2 1   
     2     1    17 1   
     3     1    26 2   
     4     2     7 1   
     5     2    32 1   
     6     2    33 1   
     7     3     6 1   
     8     3    18 ar  
     9     3    19 ar  
    10     4    11 1   
    11     4    13 2   
    12     5    16 1   
    13     5    17 1   
    14     5    25 1   
    15     5    34 1   
    16     6    35 1   
    17     6    36 1   
    18     7     8 1   
    19     7    12 1   
    20     8    11 ar  
    21     8    18 ar  
    22     9    17 1   
    23     9    37 1   
    24    10    12 2   
    25    10    15 1   
    26    11    28 ar  
    27    12    13 1   
    28    13    14 1   
    29    14    29 2   
    30    14    30 1   
    31    15    30 1   
    32    15    31 2   
    33    16    24 1   
    34    16    39 1   
    35    16    40 1   
    36    17    41 1   
    37    18    42 1   
    38    19    27 1   
    39    19    28 ar  
    40    20    21 1   
    41    21    22 1   
    42    21    23 1   
    43    21    24 1   
    44    23    43 1   
    45    25    38 1   
    46    27    44 1   
    47    27    45 1   
    48    27    46 1   
    49    28    47 1   
    50    30    48 1   
@<TRIPOS>SUBSTRUCTURE
     1 8DP         1 TEMP              0 ****  ****    0 ROOT
