@<TRIPOS>MOLECULE
8DQ
   41    44     1     0     0
SMALL
bcc


@<TRIPOS>ATOM
      1 O           -0.5780    -4.3080     0.1840 o          1 8DQ      -0.576100
      2 C           -0.4700    -3.0840     0.0940 c          1 8DQ       0.613900
      3 C8           0.8600    -2.4390     0.0930 ca         1 8DQ      -0.213600
      4 C7           2.0380    -3.1750     0.2110 ca         1 8DQ      -0.044000
      5 C6           3.2600    -2.5330     0.2160 ca         1 8DQ      -0.163000
      6 C5           3.3170    -1.1470     0.0890 ca         1 8DQ      -0.076000
      7 C3           0.9450    -1.0590    -0.0270 ca         1 8DQ       0.168100
      8 C4           2.1670    -0.3800    -0.0440 cp         1 8DQ      -0.066000
      9 C9           2.2460     1.0910    -0.1760 cp         1 8DQ      -0.028000
     10 C14          2.9620     1.8310     0.7640 ca         1 8DQ      -0.114000
     11 C13          3.0720     3.2100     0.6430 ca         1 8DQ      -0.132500
     12 C12          2.4680     3.8660    -0.4210 ca         1 8DQ      -0.125000
     13 C11          1.7570     3.1360    -1.3640 ca         1 8DQ      -0.132500
     14 C10          1.6470     1.7580    -1.2440 ca         1 8DQ      -0.114000
     15 O1          -0.1720    -0.2950    -0.1110 os         1 8DQ      -0.247200
     16 C2          -1.3970    -0.8280    -0.1060 cc         1 8DQ       0.420100
     17 C1          -1.5730    -2.1930    -0.0220 cd         1 8DQ      -0.474200
     18 N           -2.3550     0.1020    -0.1880 nh         1 8DQ      -0.685400
     19 C18         -3.7700    -0.2330    -0.2380 c6         1 8DQ       0.225800
     20 C17         -4.5440     0.6160     0.7570 c6         1 8DQ       0.137300
     21 N1          -4.3080     2.0210     0.4900 n7         1 8DQ      -0.804200
     22 C16         -2.9000     2.3350     0.6300 c6         1 8DQ       0.137300
     23 C15         -2.0940     1.5270    -0.3720 c6         1 8DQ       0.225800
     24 H1           1.9790    -4.2510     0.3020 ha         1 8DQ       0.160000
     25 H2           4.1740    -3.1020     0.3130 ha         1 8DQ       0.140000
     26 H3           4.2790    -0.6500     0.0790 ha         1 8DQ       0.139000
     27 H4           3.4250     1.3260     1.6020 ha         1 8DQ       0.135000
     28 H5           3.6270     3.7700     1.3840 ha         1 8DQ       0.131500
     29 H6           2.5530     4.9410    -0.5160 ha         1 8DQ       0.131000
     30 H7           1.2890     3.6380    -2.2010 ha         1 8DQ       0.131500
     31 H8           1.1050     1.2020    -1.9980 ha         1 8DQ       0.135000
     32 H9          -2.5650    -2.6150    -0.0330 ha         1 8DQ       0.158000
     33 H10         -4.1400    -0.0520    -1.2520 h1         1 8DQ       0.065700
     34 H11         -3.9280    -1.2820    -0.0090 h1         1 8DQ       0.065700
     35 H12         -5.6070     0.3960     0.6460 h1         1 8DQ       0.044700
     36 H13         -4.2480     0.3170     1.7750 h1         1 8DQ       0.044700
     37 H14         -4.8500     2.5850     1.1310 hn         1 8DQ       0.363800
     38 H16         -2.7400     3.3950     0.4280 h1         1 8DQ       0.044700
     39 H17         -2.5110     2.1280     1.6390 h1         1 8DQ       0.044700
     40 H18         -1.0380     1.7480    -0.2540 h1         1 8DQ       0.065700
     41 H19         -2.3830     1.8070    -1.3910 h1         1 8DQ       0.065700
@<TRIPOS>BOND
     1     1     2 2   
     2     2     3 1   
     3     2    17 1   
     4     3     4 ar  
     5     3     7 ar  
     6     4     5 ar  
     7     4    24 1   
     8     5     6 ar  
     9     5    25 1   
    10     6     8 ar  
    11     6    26 1   
    12     7     8 ar  
    13     7    15 1   
    14     8     9 1   
    15     9    10 ar  
    16     9    14 ar  
    17    10    11 ar  
    18    10    27 1   
    19    11    12 ar  
    20    11    28 1   
    21    12    13 ar  
    22    12    29 1   
    23    13    14 ar  
    24    13    30 1   
    25    14    31 1   
    26    15    16 1   
    27    16    17 2   
    28    16    18 1   
    29    17    32 1   
    30    18    19 1   
    31    18    23 1   
    32    19    20 1   
    33    19    33 1   
    34    19    34 1   
    35    20    21 1   
    36    20    35 1   
    37    20    36 1   
    38    21    22 1   
    39    21    37 1   
    40    22    23 1   
    41    22    38 1   
    42    22    39 1   
    43    23    40 1   
    44    23    41 1   
@<TRIPOS>SUBSTRUCTURE
     1 8DQ         1 TEMP              0 ****  ****    0 ROOT
