@<TRIPOS>MOLECULE
8DQ
   41    44     1     0     0
SMALL
No Charge or Current Charge


@<TRIPOS>ATOM
      1 O           -0.5580    -4.2300     0.8630 o          1 8DQ      -0.576100
      2 C           -0.3900    -3.0430     0.6240 c          1 8DQ       0.613900
      3 C8           0.9260    -2.4580     0.3110 ca         1 8DQ      -0.213600
      4 C7           2.0630    -3.2610     0.0950 ca         1 8DQ      -0.026000
      5 C6           3.2910    -2.6580    -0.2160 ca         1 8DQ      -0.145000
      6 C5           3.3840    -1.2600    -0.3150 ca         1 8DQ      -0.058000
      7 C3           1.0140    -1.0630     0.2110 ca         1 8DQ       0.168100
      8 C4           2.2520    -0.4350    -0.1060 cp         1 8DQ      -0.066000
      9 C9           2.3850     1.0520    -0.2170 cp         1 8DQ      -0.028000
     10 C14          3.4490     1.7320     0.4270 ca         1 8DQ      -0.096000
     11 C13          3.5840     3.1270     0.3240 ca         1 8DQ      -0.114500
     12 C12          2.6600     3.8700    -0.4290 ca         1 8DQ      -0.107000
     13 C11          1.6040     3.2150    -1.0840 ca         1 8DQ      -0.114500
     14 C10          1.4710     1.8200    -0.9810 ca         1 8DQ      -0.096000
     15 O1          -0.0490    -0.2290     0.5170 os         1 8DQ      -0.247200
     16 C2          -1.3110    -0.7670     0.3560 cc         1 8DQ       0.420100
     17 C1          -1.4900    -2.1080     0.5680 cd         1 8DQ      -0.524200
     18 N           -2.3520     0.1290     0.2330 nh         1 8DQ      -0.685400
     19 C18         -3.6250    -0.2350    -0.4740 c6         1 8DQ       0.225800
     20 C17         -4.8470     0.5960     0.0380 c6         1 8DQ       0.137300
     21 N1          -4.6010     2.0670     0.0110 n7         1 8DQ      -0.859400
     22 C16         -3.3550     2.4130     0.7530 c6         1 8DQ       0.137300
     23 C15         -2.1060     1.6110     0.2610 c6         1 8DQ       0.225800
     24 H1           1.9980    -4.3460     0.1660 ha         1 8DQ       0.142000
     25 H2           4.1720    -3.2740    -0.3840 ha         1 8DQ       0.122000
     26 H3           4.3420    -0.8080    -0.5640 ha         1 8DQ       0.121000
     27 H4           4.1680     1.1710     1.0190 ha         1 8DQ       0.117000
     28 H5           4.4040     3.6330     0.8300 ha         1 8DQ       0.113500
     29 H6           2.7650     4.9500    -0.5090 ha         1 8DQ       0.113000
     30 H7           0.8920     3.7880    -1.6740 ha         1 8DQ       0.113500
     31 H8           0.6570     1.3250    -1.5060 ha         1 8DQ       0.117000
     32 H9          -2.4650    -2.5590     0.6700 ha         1 8DQ       0.208000
     33 H10         -3.5070    -0.0550    -1.5520 h1         1 8DQ       0.065700
     34 H11         -3.8650    -1.3000    -0.3590 h1         1 8DQ       0.065700
     35 H12         -5.7300     0.3580    -0.5730 h1         1 8DQ       0.044700
     36 H13         -5.0710     0.2870     1.0700 h1         1 8DQ       0.044700
     37 H14         -5.4000     2.5520     0.4430 hn         1 8DQ       0.419000
     38 H16         -3.1550     3.4900     0.6580 h1         1 8DQ       0.044700
     39 H17         -3.5040     2.2030     1.8230 h1         1 8DQ       0.044700
     40 H18         -1.2640     1.8600     0.9230 h1         1 8DQ       0.065700
     41 H19         -1.8350     1.9590    -0.7460 h1         1 8DQ       0.065700
@<TRIPOS>BOND
     1     1     2 2   
     2     2     3 1   
     3     2    17 1   
     4     3     4 ar  
     5     3     7 ar  
     6     4     5 ar  
     7     4    24 1   
     8     5     6 ar  
     9     5    25 1   
    10     6     8 ar  
    11     6    26 1   
    12     7     8 ar  
    13     7    15 1   
    14     8     9 1   
    15     9    10 ar  
    16     9    14 ar  
    17    10    11 ar  
    18    10    27 1   
    19    11    12 ar  
    20    11    28 1   
    21    12    13 ar  
    22    12    29 1   
    23    13    14 ar  
    24    13    30 1   
    25    14    31 1   
    26    15    16 1   
    27    16    17 2   
    28    16    18 1   
    29    17    32 1   
    30    18    19 1   
    31    18    23 1   
    32    19    20 1   
    33    19    33 1   
    34    19    34 1   
    35    20    21 1   
    36    20    35 1   
    37    20    36 1   
    38    21    22 1   
    39    21    37 1   
    40    22    23 1   
    41    22    38 1   
    42    22    39 1   
    43    23    40 1   
    44    23    41 1   
@<TRIPOS>SUBSTRUCTURE
     1 8DQ         1 TEMP              0 ****  ****    0 ROOT
