@<TRIPOS>MOLECULE
8DS
   34    36     1     0     0
SMALL
No Charge or Current Charge


@<TRIPOS>ATOM
      1 C2          35.7370    -4.1850    52.7600 c          1 8DS       0.635300
      2 C4          35.8560    -6.5760    51.9600 c3         1 8DS       0.099000
      3 C5          34.8610    -7.4900    52.7080 c3         1 8DS      -0.057100
      4 C6          34.5250    -6.9900    54.1090 ca         1 8DS      -0.081300
      5 C7          33.3500    -6.2450    54.3360 ca         1 8DS      -0.095000
      6 C8          33.0560    -5.7630    55.6240 ca         1 8DS      -0.097000
      7 C11         35.4000    -7.2500    55.1820 ca         1 8DS      -0.095000
      8 C15         34.0790    -0.6010    52.7460 ca         1 8DS      -0.249000
      9 C16         33.4820    -1.3280    51.7370 ca         1 8DS      -0.049800
     10 C17         34.0040    -2.6700    51.6220 cc         1 8DS      -0.148200
     11 C18         32.4770    -0.7220    50.9650 ca         1 8DS       0.097000
     12 O1          36.5950    -4.3430    53.6170 o          1 8DS      -0.589100
     13 N3          35.3800    -5.1890    51.8820 ns         1 8DS      -0.486900
     14 C9          33.9330    -6.0250    56.6880 ca         1 8DS       0.124000
     15 C10         35.1040    -6.7680    56.4690 ca         1 8DS      -0.097000
     16 Cl12        33.5660    -5.4180    58.2980 cl         1 8DS      -0.205000
     17 C13         34.9980    -2.9090    52.5730 cd         1 8DS      -0.134600
     18 S14         35.3240    -1.5020    53.6280 ss         1 8DS       0.223400
     19 C20         32.1350     0.6150    51.2730 ca         1 8DS       0.339900
     20 N21         32.7260     1.3340    52.2710 nb         1 8DS      -0.653000
     21 C22         33.6930     0.7240    53.0020 ca         1 8DS       0.384900
     22 H1          36.0030    -6.9560    50.9400 h1         1 8DS       0.065700
     23 H2          36.8290    -6.6030    52.4680 h1         1 8DS       0.065700
     24 H3          33.9460    -7.5780    52.1090 hc         1 8DS       0.053200
     25 H4          35.2840    -8.5000    52.7600 hc         1 8DS       0.053200
     26 H5          32.6690    -6.0330    53.5150 ha         1 8DS       0.112500
     27 H6          32.1510    -5.1860    55.7960 ha         1 8DS       0.129500
     28 H7          36.3130    -7.8180    55.0170 ha         1 8DS       0.112500
     29 H8          33.6530    -3.3950    50.8920 ha         1 8DS       0.209000
     30 H9          34.6750    -4.9660    51.1940 hn         1 8DS       0.313500
     31 H10         35.7830    -6.9680    57.2950 ha         1 8DS       0.129500
     32 H11         31.3620     1.1290    50.7030 h4         1 8DS       0.036100
     33 H12         34.1580     1.3070    53.7960 h4         1 8DS       0.033100
     34 Cl19        31.6690    -1.5920    49.6590 cl         1 8DS      -0.179000
@<TRIPOS>BOND
     1     1    12 2   
     2     1    13 1   
     3     1    17 1   
     4     2     3 1   
     5     2    13 1   
     6     2    22 1   
     7     2    23 1   
     8     3     4 1   
     9     3    24 1   
    10     3    25 1   
    11     4     5 ar  
    12     4     7 ar  
    13     5     6 ar  
    14     5    26 1   
    15     6    14 ar  
    16     6    27 1   
    17     7    15 ar  
    18     7    28 1   
    19     8     9 ar  
    20     8    18 1   
    21     8    21 ar  
    22     9    10 1   
    23     9    11 ar  
    24    10    17 2   
    25    10    29 1   
    26    11    19 ar  
    27    11    34 1   
    28    13    30 1   
    29    14    15 ar  
    30    14    16 1   
    31    15    31 1   
    32    17    18 1   
    33    19    20 ar  
    34    19    32 1   
    35    20    21 ar  
    36    21    33 1   
@<TRIPOS>SUBSTRUCTURE
     1 8DS         1 TEMP              0 ****  ****    0 ROOT
