@<TRIPOS>MOLECULE
8DS
   34    36     1     0     0
SMALL
bcc


@<TRIPOS>ATOM
      1 C2          35.8100    -4.2630    52.6290 c          1 8DS       0.702300
      2 C4          36.0430    -6.6280    52.0260 c3         1 8DS       0.099000
      3 C5          34.9950    -7.5150    52.7120 c3         1 8DS      -0.057100
      4 C6          34.5370    -6.9300    54.0150 ca         1 8DS      -0.081300
      5 C7          33.4620    -6.0460    54.0600 ca         1 8DS      -0.113000
      6 C8          33.0860    -5.4270    55.2440 ca         1 8DS      -0.115000
      7 C11         35.2220    -7.1950    55.1980 ca         1 8DS      -0.113000
      8 C15         34.1910    -0.7350    52.7520 ca         1 8DS      -0.187400
      9 C16         33.3770    -1.4910    51.8950 ca         1 8DS      -0.049800
     10 C17         33.8550    -2.8240    51.7350 cc         1 8DS      -0.098200
     11 C18         32.2600    -0.8480    51.3530 ca         1 8DS      -0.059900
     12 O1          36.6710    -4.2660    53.4970 o          1 8DS      -0.589100
     13 N3          35.5490    -5.2880    51.8060 ns         1 8DS      -0.553900
     14 C9          33.7930    -5.7050    56.4020 ca         1 8DS       0.032400
     15 C10         34.8580    -6.5930    56.3930 ca         1 8DS      -0.115000
     16 CL12        33.3370    -4.9320    57.8870 cl         1 8DS      -0.113400
     17 C13         34.9900    -3.0390    52.4460 cd         1 8DS      -0.134600
     18 S14         35.5180    -1.6600    53.3500 ss         1 8DS       0.096500
     19 C20         32.0260     0.4700    51.6770 ca         1 8DS       0.405200
     20 N21         32.8190     1.1710    52.4950 nb         1 8DS      -0.653000
     21 C22         33.8760     0.5950    53.0270 ca         1 8DS       0.450200
     22 H1          36.3170    -7.0630    51.0650 h1         1 8DS       0.065700
     23 H2          36.9480    -6.5730    52.6280 h1         1 8DS       0.065700
     24 H3          34.1460    -7.6460    52.0370 hc         1 8DS       0.053200
     25 H4          35.4360    -8.5020    52.8640 hc         1 8DS       0.053200
     26 H5          32.9050    -5.8270    53.1570 ha         1 8DS       0.130500
     27 H6          32.2520    -4.7380    55.2580 ha         1 8DS       0.147500
     28 H7          36.0600    -7.8820    55.1910 ha         1 8DS       0.130500
     29 H8          33.3540    -3.5670    51.1310 ha         1 8DS       0.159000
     30 H9          34.8240    -5.1860    51.1130 hn         1 8DS       0.313500
     31 H10         35.4000    -6.8120    57.3030 ha         1 8DS       0.147500
     32 H11         31.1670     0.9880    51.2660 h4         1 8DS       0.036100
     33 H12         34.4960     1.1920    53.6860 h4         1 8DS       0.033100
     34 CL19        31.1970    -1.6950    50.2980 cl         1 8DS      -0.087400
@<TRIPOS>BOND
     1     1    12 2   
     2     1    13 1   
     3     1    17 1   
     4     2     3 1   
     5     2    13 1   
     6     2    22 1   
     7     2    23 1   
     8     3     4 1   
     9     3    24 1   
    10     3    25 1   
    11     4     5 ar  
    12     4     7 ar  
    13     5     6 ar  
    14     5    26 1   
    15     6    14 ar  
    16     6    27 1   
    17     7    15 ar  
    18     7    28 1   
    19     8     9 ar  
    20     8    18 1   
    21     8    21 ar  
    22     9    10 1   
    23     9    11 ar  
    24    10    17 2   
    25    10    29 1   
    26    11    19 ar  
    27    11    34 1   
    28    13    30 1   
    29    14    15 ar  
    30    14    16 1   
    31    15    31 1   
    32    17    18 1   
    33    19    20 ar  
    34    19    32 1   
    35    20    21 ar  
    36    21    33 1   
@<TRIPOS>SUBSTRUCTURE
     1 8DS         1 TEMP              0 ****  ****    0 ROOT
