@<TRIPOS>MOLECULE
8DU
   45    48     1     0     0
SMALL
No Charge or Current Charge


@<TRIPOS>ATOM
      1 C01         -4.3390    -1.9890    -0.1550 ca         1 8DU       0.214100
      2 C02         -3.5660    -3.1120    -0.4570 ca         1 8DU      -0.210000
      3 C03         -2.1790    -3.0930    -0.2630 ca         1 8DU       0.237100
      4 C04         -1.5240    -1.9260     0.2050 ca         1 8DU      -0.288500
      5 C05         -2.3300    -0.8150     0.5530 ca         1 8DU       0.015000
      6 C06         -3.7210    -0.8380     0.3620 ca         1 8DU      -0.037000
      7 C10         -0.0650    -1.8840     0.4420 cc         1 8DU       0.392500
      8 O12          1.9220    -2.5580     1.0610 os         1 8DU      -0.072700
      9 C13          1.9810    -1.2100     0.8690 cd         1 8DU       0.305900
     10 O07         -1.4820    -4.2190    -0.5690 oh         1 8DU      -0.532100
     11 O08         -5.6890    -2.0300    -0.3470 oh         1 8DU      -0.520100
     12 Cl1         -4.6770     0.5810     0.7940 cl         1 8DU      -0.203000
     13 N11          0.5950    -2.9970     0.7440 nd         1 8DU      -0.434300
     14 C14          0.7420    -0.7160     0.5630 cc         1 8DU      -0.151000
     15 C15          0.4970     0.6900     0.1990 ca         1 8DU      -0.049000
     16 C16         -0.3280     1.0140    -0.8980 ca         1 8DU      -0.050000
     17 C17         -0.5710     2.3550    -1.2380 ca         1 8DU      -0.176000
     18 C18          0.0040     3.3950    -0.4920 ca         1 8DU       0.148100
     19 C19          0.8300     3.0820     0.6080 ca         1 8DU      -0.176000
     20 C20          1.0720     1.7390     0.9470 ca         1 8DU      -0.050000
     21 O21         -0.2710     4.6920    -0.8740 os         1 8DU      -0.340100
     22 C22          0.2710     5.8270    -0.1760 c3         1 8DU       0.148900
     23 N23          3.2120    -0.5890     0.9140 ns         1 8DU      -0.499400
     24 C24          3.7460     0.3020     0.0190 c          1 8DU       0.649100
     25 C25          5.1230     0.7810     0.4040 cx         1 8DU      -0.251700
     26 C26          6.2010     0.8570    -0.6600 cx         1 8DU      -0.091900
     27 C27          6.2690    -0.2130     0.4040 cx         1 8DU      -0.091900
     28 O28          3.1920     0.6550    -1.0100 o          1 8DU      -0.547100
     29 H1          -4.0450    -4.0090    -0.8390 ha         1 8DU       0.151000
     30 H2          -1.8950     0.0730     1.0050 ha         1 8DU       0.142000
     31 H3          -0.5730    -4.0870    -0.2100 ho         1 8DU       0.509000
     32 H4          -6.0500    -1.1600    -0.0700 ho         1 8DU       0.483000
     33 H5          -0.7690     0.2250    -1.5040 ha         1 8DU       0.118000
     34 H6          -1.2050     2.5910    -2.0890 ha         1 8DU       0.123500
     35 H7           1.2870     3.8610     1.2100 ha         1 8DU       0.123500
     36 H8           1.6950     1.5170     1.8110 ha         1 8DU       0.118000
     37 H9          -0.0550     5.8330     0.8720 h1         1 8DU       0.040700
     38 H10          1.3680     5.8160    -0.2040 h1         1 8DU       0.040700
     39 H11         -0.0710     6.7590    -0.6430 h1         1 8DU       0.040700
     40 H12          3.8890    -0.9340     1.5810 hn         1 8DU       0.340500
     41 H13          5.1380     1.5530     1.1690 hc         1 8DU       0.088700
     42 H14          5.9510     0.5470    -1.6730 hc         1 8DU       0.085200
     43 H15          6.9160     1.6750    -0.6030 hc         1 8DU       0.085200
     44 H16          7.0310    -0.1120     1.1740 hc         1 8DU       0.085200
     45 H17          6.0680    -1.2380     0.0980 hc         1 8DU       0.085200
@<TRIPOS>BOND
     1     1     2 ar  
     2     1     6 ar  
     3     1    11 1   
     4     2     3 ar  
     5     2    29 1   
     6     3     4 ar  
     7     3    10 1   
     8     4     5 ar  
     9     4     7 1   
    10     5     6 ar  
    11     5    30 1   
    12     6    12 1   
    13     7    13 2   
    14     7    14 1   
    15     8     9 1   
    16     8    13 1   
    17     9    14 2   
    18     9    23 1   
    19    10    31 1   
    20    11    32 1   
    21    14    15 1   
    22    15    16 ar  
    23    15    20 ar  
    24    16    17 ar  
    25    16    33 1   
    26    17    18 ar  
    27    17    34 1   
    28    18    19 ar  
    29    18    21 1   
    30    19    20 ar  
    31    19    35 1   
    32    20    36 1   
    33    21    22 1   
    34    22    37 1   
    35    22    38 1   
    36    22    39 1   
    37    23    24 1   
    38    23    40 1   
    39    24    25 1   
    40    24    28 2   
    41    25    26 1   
    42    25    27 1   
    43    25    41 1   
    44    26    27 1   
    45    26    42 1   
    46    26    43 1   
    47    27    44 1   
    48    27    45 1   
@<TRIPOS>SUBSTRUCTURE
     1 8DU         1 TEMP              0 ****  ****    0 ROOT
