@<TRIPOS>MOLECULE
8DU
   45    48     1     0     0
SMALL
abcg2


@<TRIPOS>ATOM
      1 C01         -4.3400    -1.8290    -0.2160 ca         1 8DU       0.214100
      2 C02         -3.6310    -3.0200    -0.1830 ca         1 8DU      -0.210000
      3 C03         -2.2800    -3.0460     0.1440 ca         1 8DU       0.237100
      4 C04         -1.5980    -1.8420     0.4150 ca         1 8DU      -0.288500
      5 C05         -2.3270    -0.6540     0.4010 ca         1 8DU       0.015000
      6 C06         -3.6680    -0.6410     0.0930 ca         1 8DU      -0.037000
      7 C10         -0.1650    -1.8340     0.7020 cc         1 8DU       0.392500
      8 O12          1.7270    -2.6580     1.2940 os         1 8DU      -0.072700
      9 C13          1.9450    -1.3810     0.9780 cd         1 8DU       0.305900
     10 O07         -1.6910    -4.2450     0.1690 oh         1 8DU      -0.532100
     11 O08         -5.6360    -1.8760    -0.5310 oh         1 8DU      -0.520100
     12 CL1         -4.5480     0.8540     0.0830 cl         1 8DU      -0.203000
     13 N11          0.4080    -2.9280     1.1370 nd         1 8DU      -0.434300
     14 C14          0.7910    -0.7800     0.5830 cc         1 8DU      -0.151000
     15 C15          0.6130     0.6150     0.1700 ca         1 8DU      -0.049000
     16 C16          0.1720     0.9310    -1.1160 ca         1 8DU      -0.050000
     17 C17         -0.0080     2.2430    -1.5020 ca         1 8DU      -0.176000
     18 C18          0.2630     3.2830    -0.6070 ca         1 8DU       0.148100
     19 C19          0.7140     2.9820     0.6740 ca         1 8DU      -0.176000
     20 C20          0.8820     1.6540     1.0500 ca         1 8DU      -0.050000
     21 O21          0.0590     4.5300    -1.0680 os         1 8DU      -0.340100
     22 C22          0.3160     5.6200    -0.2040 c3         1 8DU       0.148900
     23 N23          3.2330    -0.9240     1.0960 ns         1 8DU      -0.499400
     24 C24          3.8820    -0.2520     0.0880 c          1 8DU       0.649100
     25 C25          5.2360     0.2190     0.4570 cx         1 8DU      -0.251700
     26 C26          5.6760     1.5560    -0.0880 cx         1 8DU      -0.091900
     27 C27          6.2710     0.3130    -0.6340 cx         1 8DU      -0.091900
     28 O28          3.3720    -0.0720    -0.9970 o          1 8DU      -0.547100
     29 H1          -4.1430    -3.9480    -0.4050 ha         1 8DU       0.151000
     30 H2          -1.8400     0.2790     0.6440 ha         1 8DU       0.142000
     31 H3          -0.7780    -4.1680     0.5080 ho         1 8DU       0.509000
     32 H4          -6.0280    -0.9930    -0.5360 ho         1 8DU       0.483000
     33 H5          -0.0330     0.1390    -1.8250 ha         1 8DU       0.118000
     34 H6          -0.3550     2.4770    -2.5000 ha         1 8DU       0.123500
     35 H7           0.9310     3.7580     1.3950 ha         1 8DU       0.123500
     36 H8           1.2180     1.4330     2.0550 ha         1 8DU       0.118000
     37 H9          -0.3160     5.5900     0.6880 h1         1 8DU       0.040700
     38 H10          1.3630     5.6550     0.1080 h1         1 8DU       0.040700
     39 H11          0.0870     6.5210    -0.7660 h1         1 8DU       0.040700
     40 H12          3.7390    -1.1500     1.9410 hn         1 8DU       0.340500
     41 H13          5.5880    -0.0420     1.4480 hc         1 8DU       0.088700
     42 H14          4.9660     2.0960    -0.7000 hc         1 8DU       0.085200
     43 H15          6.2700     2.1720     0.5730 hc         1 8DU       0.085200
     44 H16          7.2850     0.0580    -0.3580 hc         1 8DU       0.085200
     45 H17          5.9750    -0.0030    -1.6250 hc         1 8DU       0.085200
@<TRIPOS>BOND
     1     1     2 ar  
     2     1     6 ar  
     3     1    11 1   
     4     2     3 ar  
     5     2    29 1   
     6     3     4 ar  
     7     3    10 1   
     8     4     5 ar  
     9     4     7 1   
    10     5     6 ar  
    11     5    30 1   
    12     6    12 1   
    13     7    13 2   
    14     7    14 1   
    15     8     9 1   
    16     8    13 1   
    17     9    14 2   
    18     9    23 1   
    19    10    31 1   
    20    11    32 1   
    21    14    15 1   
    22    15    16 ar  
    23    15    20 ar  
    24    16    17 ar  
    25    16    33 1   
    26    17    18 ar  
    27    17    34 1   
    28    18    19 ar  
    29    18    21 1   
    30    19    20 ar  
    31    19    35 1   
    32    20    36 1   
    33    21    22 1   
    34    22    37 1   
    35    22    38 1   
    36    22    39 1   
    37    23    24 1   
    38    23    40 1   
    39    24    25 1   
    40    24    28 2   
    41    25    26 1   
    42    25    27 1   
    43    25    41 1   
    44    26    27 1   
    45    26    42 1   
    46    26    43 1   
    47    27    44 1   
    48    27    45 1   
@<TRIPOS>SUBSTRUCTURE
     1 8DU         1 TEMP              0 ****  ****    0 ROOT
