@<TRIPOS>MOLECULE
8DV
   57    62     1     0     0
SMALL
No Charge or Current Charge


@<TRIPOS>ATOM
      1 C1           2.0990    -3.1810    -0.3250 c6         1 8DV       0.195500
      2 C2           2.4150    -4.5790     0.2980 c6         1 8DV       0.143600
      3 C3           0.1240    -5.2710     0.2120 c6         1 8DV       0.142600
      4 O1          -5.4760     0.5890    -0.6560 o          1 8DV      -0.527000
      5 O2          -3.9310    -1.1870     0.4510 o          1 8DV      -0.527000
      6 C11          2.2690     4.0720     1.4620 ca         1 8DV      -0.110000
      7 C12          3.6540     3.8320     1.3990 ca         1 8DV      -0.109000
      8 C13          4.0810     2.6040     0.8820 ca         1 8DV      -0.066200
      9 C14          5.3900     0.8830     0.1260 cc         1 8DV      -0.170100
     10 C15          4.0470     0.5790    -0.0320 cd         1 8DV      -0.225200
     11 C16          3.1950     1.6470     0.4490 ca         1 8DV      -0.054800
     12 C17         -2.7050     0.8320    -1.1150 cx         1 8DV      -0.423300
     13 C18         -2.9130     0.7490    -2.6250 cx         1 8DV      -0.062900
     14 C19         -2.8530     2.0970    -1.9660 cx         1 8DV      -0.062900
     15 C20         -3.3750     1.5050     0.9160 cx         1 8DV      -0.397700
     16 C21         -3.8540     1.6220     2.3540 cx         1 8DV      -0.064400
     17 C22         -2.4360     1.2010     2.0770 cx         1 8DV      -0.064400
     18 S           -4.1860     0.1450    -0.1110 s6         1 8DV       1.179000
     19 C7          -1.3610     0.3170    -0.6490 ca         1 8DV       0.179300
     20 C6          -1.0480    -1.0500    -0.6480 ca         1 8DV      -0.260000
     21 N1          -0.4270     1.2330    -0.3270 nb         1 8DV      -0.221000
     22 C8           0.7920     0.7960     0.0470 cp         1 8DV       0.242500
     23 C9           1.7860     1.8330     0.5010 cp         1 8DV      -0.104500
     24 N3           5.3840     2.1640     0.7090 na         1 8DV      -0.223700
     25 C10          1.3520     3.0910     1.0180 ca         1 8DV      -0.095000
     26 N2           1.1490    -0.5020     0.1110 nb         1 8DV      -0.257000
     27 C5           0.2400    -1.4340    -0.2370 ca         1 8DV       0.392900
     28 N            0.6490    -2.7940    -0.1710 nh         1 8DV      -0.767300
     29 C            2.4950    -3.1180    -1.8250 c3         1 8DV      -0.111100
     30 C4          -0.3300    -3.9140    -0.4010 c6         1 8DV       0.179800
     31 O            1.4830    -5.5820    -0.1630 os         1 8DV      -0.440000
     32 H1           2.7420    -2.4680     0.2120 h1         1 8DV       0.094700
     33 H2           3.4360    -4.8870     0.0340 h1         1 8DV       0.056200
     34 H3           2.3580    -4.5150     1.3940 h1         1 8DV       0.056200
     35 H4           0.0550    -5.2230     1.3080 h1         1 8DV       0.056700
     36 H5          -0.5400    -6.0760    -0.1340 h1         1 8DV       0.056700
     37 H6           1.9020     5.0170     1.8550 ha         1 8DV       0.113000
     38 H7           4.3680     4.5800     1.7350 ha         1 8DV       0.113000
     39 H8           6.2950     0.3330    -0.1210 h4         1 8DV       0.210000
     40 H9           3.6960    -0.3430    -0.4850 ha         1 8DV       0.216000
     41 H10         -2.0680     0.4600    -3.2470 hc         1 8DV       0.092200
     42 H11         -3.8780     0.4220    -3.0070 hc         1 8DV       0.092200
     43 H12         -3.7800     2.6630    -1.9040 hc         1 8DV       0.092200
     44 H13         -1.9700     2.7070    -2.1450 hc         1 8DV       0.092200
     45 H14         -3.3620     2.4620     0.4030 h1         1 8DV       0.132700
     46 H15         -4.0120     2.6190     2.7600 hc         1 8DV       0.087950
     47 H16         -4.5340     0.8660     2.7420 hc         1 8DV       0.087950
     48 H17         -2.1680     0.1630     2.2640 hc         1 8DV       0.087950
     49 H18         -1.6450     1.9150     2.2920 hc         1 8DV       0.087950
     50 H19         -1.7830    -1.7760    -0.9700 ha         1 8DV       0.143000
     51 H20          6.2120     2.6970     0.9610 hn         1 8DV       0.348000
     52 H21          0.2890     3.3110     1.0910 ha         1 8DV       0.129000
     53 H22          1.9170    -3.8310    -2.4240 hc         1 8DV       0.045033
     54 H23          2.3250    -2.1170    -2.2390 hc         1 8DV       0.045033
     55 H24          3.5570    -3.3530    -1.9610 hc         1 8DV       0.045033
     56 H25         -0.4930    -4.0500    -1.4810 h1         1 8DV       0.055700
     57 H26         -1.3040    -3.6690     0.0480 h1         1 8DV       0.055700
@<TRIPOS>BOND
     1     1     2 1   
     2     1    28 1   
     3     1    29 1   
     4     1    32 1   
     5     2    31 1   
     6     2    33 1   
     7     2    34 1   
     8     3    30 1   
     9     3    31 1   
    10     3    35 1   
    11     3    36 1   
    12     4    18 2   
    13     5    18 2   
    14     6     7 ar  
    15     6    25 ar  
    16     6    37 1   
    17     7     8 ar  
    18     7    38 1   
    19     8    11 ar  
    20     8    24 1   
    21     9    10 2   
    22     9    24 1   
    23     9    39 1   
    24    10    11 1   
    25    10    40 1   
    26    11    23 ar  
    27    12    13 1   
    28    12    14 1   
    29    12    18 1   
    30    12    19 1   
    31    13    14 1   
    32    13    41 1   
    33    13    42 1   
    34    14    43 1   
    35    14    44 1   
    36    15    16 1   
    37    15    17 1   
    38    15    18 1   
    39    15    45 1   
    40    16    17 1   
    41    16    46 1   
    42    16    47 1   
    43    17    48 1   
    44    17    49 1   
    45    19    20 ar  
    46    19    21 ar  
    47    20    27 ar  
    48    20    50 1   
    49    21    22 ar  
    50    22    23 1   
    51    22    26 ar  
    52    23    25 ar  
    53    24    51 1   
    54    25    52 1   
    55    26    27 ar  
    56    27    28 1   
    57    28    30 1   
    58    29    53 1   
    59    29    54 1   
    60    29    55 1   
    61    30    56 1   
    62    30    57 1   
@<TRIPOS>SUBSTRUCTURE
     1 8DV         1 TEMP              0 ****  ****    0 ROOT
