@<TRIPOS>MOLECULE
8DV
   57    62     1     0     0
SMALL
abcg2


@<TRIPOS>ATOM
      1 C1           2.0690    -3.0790    -0.2200 c6         1 8DV       0.195500
      2 C2           2.2250    -4.4250     0.4730 c6         1 8DV       0.143600
      3 C3           0.1460    -5.1600    -0.1820 c6         1 8DV       0.142600
      4 O1          -5.1430     1.2280    -0.3510 o          1 8DV      -0.527000
      5 O2          -3.8900    -0.6730     0.6970 o          1 8DV      -0.527000
      6 C11          2.1030     4.0030     1.1800 ca         1 8DV      -0.110000
      7 C12          3.4660     3.7910     1.2500 ca         1 8DV      -0.109000
      8 C13          3.9380     2.5410     0.8640 ca         1 8DV      -0.066200
      9 C14          5.2210     0.7970     0.3580 cc         1 8DV      -0.170100
     10 C15          3.9410     0.3950     0.1050 cd         1 8DV      -0.225200
     11 C16          3.0870     1.4960     0.4220 ca         1 8DV      -0.054800
     12 C17         -2.7070     0.7160    -1.2090 cx         1 8DV      -0.423300
     13 C18         -3.2760     0.4300    -2.5680 cx         1 8DV      -0.062900
     14 C19         -2.8550     1.8170    -2.2090 cx         1 8DV      -0.062900
     15 C20         -3.2070     1.7820     1.3250 cx         1 8DV      -0.397700
     16 C21         -3.6020     1.5800     2.7590 cx         1 8DV      -0.064400
     17 C22         -2.2100     1.2840     2.3200 cx         1 8DV      -0.064400
     18 S           -3.8770     0.6760     0.1340 s6         1 8DV       1.179000
     19 C7          -1.3510     0.2320    -0.8180 ca         1 8DV       0.179300
     20 C6          -1.0670    -1.1130    -0.8320 ca         1 8DV      -0.260000
     21 N1          -0.4740     1.1610    -0.4530 nb         1 8DV      -0.221000
     22 C8           0.7240     0.7230    -0.0830 cp         1 8DV       0.242500
     23 C9           1.6980     1.7430     0.3570 cp         1 8DV      -0.104500
     24 N3           5.2200     2.0790     0.8160 na         1 8DV      -0.223700
     25 C10          1.2390     2.9980     0.7340 ca         1 8DV      -0.095000
     26 N2           1.1050    -0.5450    -0.0640 nb         1 8DV      -0.257000
     27 C5           0.2320    -1.4890    -0.4270 ca         1 8DV       0.392900
     28 N            0.6440    -2.7770    -0.3650 nh         1 8DV      -0.767300
     29 C            2.7890    -3.0170    -1.5630 c3         1 8DV      -0.111100
     30 C4          -0.1660    -3.8590    -0.8990 c6         1 8DV       0.179800
     31 O            1.5220    -5.4510    -0.1880 os         1 8DV      -0.440000
     32 H1           2.5010    -2.3360     0.4490 h1         1 8DV       0.094700
     33 H2           3.2800    -4.7020     0.4930 h1         1 8DV       0.056200
     34 H3           1.8790    -4.3370     1.5130 h1         1 8DV       0.056200
     35 H4          -0.2260    -5.1000     0.8510 h1         1 8DV       0.056700
     36 H5          -0.3740    -5.9790    -0.6810 h1         1 8DV       0.056700
     37 H6           1.6950     4.9610     1.4750 ha         1 8DV       0.113000
     38 H7           4.1410     4.5680     1.5880 ha         1 8DV       0.113000
     39 H8           6.1470     0.2570     0.2430 h4         1 8DV       0.210000
     40 H9           3.6490    -0.5710    -0.2660 ha         1 8DV       0.216000
     41 H10         -2.6470    -0.1490    -3.2310 hc         1 8DV       0.092200
     42 H11         -4.3340     0.2220    -2.6570 hc         1 8DV       0.092200
     43 H12         -3.6270     2.5580    -2.0540 hc         1 8DV       0.092200
     44 H13         -1.9330     2.2050    -2.6200 hc         1 8DV       0.092200
     45 H14         -3.1130     2.7920     0.9410 h1         1 8DV       0.132700
     46 H15         -3.7950     2.4800     3.3280 hc         1 8DV       0.087950
     47 H16         -4.2450     0.7450     3.0040 hc         1 8DV       0.087950
     48 H17         -1.9060     0.2470     2.2670 hc         1 8DV       0.087950
     49 H18         -1.4170     1.9740     2.5740 hc         1 8DV       0.087950
     50 H19         -1.8150    -1.8180    -1.1570 ha         1 8DV       0.143000
     51 H20          6.0400     2.6060     1.0640 hn         1 8DV       0.348000
     52 H21          0.1770     3.2000     0.6880 ha         1 8DV       0.129000
     53 H22          2.4190    -3.7680    -2.2620 hc         1 8DV       0.045033
     54 H23          2.6620    -2.0370    -2.0230 hc         1 8DV       0.045033
     55 H24          3.8580    -3.1870    -1.4260 hc         1 8DV       0.045033
     56 H25         -0.0090    -3.9690    -1.9790 h1         1 8DV       0.055700
     57 H26         -1.2240    -3.6580    -0.7440 h1         1 8DV       0.055700
@<TRIPOS>BOND
     1     1     2 1   
     2     1    28 1   
     3     1    29 1   
     4     1    32 1   
     5     2    31 1   
     6     2    33 1   
     7     2    34 1   
     8     3    30 1   
     9     3    31 1   
    10     3    35 1   
    11     3    36 1   
    12     4    18 2   
    13     5    18 2   
    14     6     7 ar  
    15     6    25 ar  
    16     6    37 1   
    17     7     8 ar  
    18     7    38 1   
    19     8    11 ar  
    20     8    24 1   
    21     9    10 2   
    22     9    24 1   
    23     9    39 1   
    24    10    11 1   
    25    10    40 1   
    26    11    23 ar  
    27    12    13 1   
    28    12    14 1   
    29    12    18 1   
    30    12    19 1   
    31    13    14 1   
    32    13    41 1   
    33    13    42 1   
    34    14    43 1   
    35    14    44 1   
    36    15    16 1   
    37    15    17 1   
    38    15    18 1   
    39    15    45 1   
    40    16    17 1   
    41    16    46 1   
    42    16    47 1   
    43    17    48 1   
    44    17    49 1   
    45    19    20 ar  
    46    19    21 ar  
    47    20    27 ar  
    48    20    50 1   
    49    21    22 ar  
    50    22    23 1   
    51    22    26 ar  
    52    23    25 ar  
    53    24    51 1   
    54    25    52 1   
    55    26    27 ar  
    56    27    28 1   
    57    28    30 1   
    58    29    53 1   
    59    29    54 1   
    60    29    55 1   
    61    30    56 1   
    62    30    57 1   
@<TRIPOS>SUBSTRUCTURE
     1 8DV         1 TEMP              0 ****  ****    0 ROOT
