@<TRIPOS>MOLECULE
8DW
   52    55     1     0     0
SMALL
No Charge or Current Charge


@<TRIPOS>ATOM
      1 CBB         64.1670    15.5320    14.9340 c3         1 8DW       0.142900
      2 OBA         62.8640    16.1410    14.9050 os         1 8DW      -0.325100
      3 CAZ         62.3600    16.8760    15.9630 ca         1 8DW       0.163100
      4 CAY         63.1200    17.1080    17.1330 ca         1 8DW      -0.189000
      5 CAX         62.5940    17.8870    18.1780 ca         1 8DW      -0.055000
      6 CAW         61.3140    18.4500    18.0570 ca         1 8DW       0.080100
      7 OBC         60.7950    19.1970    19.0850 os         1 8DW      -0.480800
      8 SBD         60.9970    20.8390    19.0530 s6         1 8DW       1.582600
      9 OBG         62.4060    21.1290    18.7370 o          1 8DW      -0.545000
     10 OBF         60.3830    21.4030    20.2660 o          1 8DW      -0.545000
     11 FBE         60.1170    21.3910    17.7800 f          1 8DW      -0.277900
     12 CAV         60.5460    18.2120    16.9060 ca         1 8DW      -0.081000
     13 CAU         61.0570    17.4250    15.8550 ca         1 8DW      -0.026800
     14 CAT         60.2250    17.1990    14.6720 cc         1 8DW      -0.079400
     15 CAP         59.8980    15.9860    13.9860 ca         1 8DW      -0.112800
     16 CAQ         60.2290    14.6590    14.2810 ca         1 8DW      -0.002000
     17 CAS         59.6130    18.2380    13.9940 cd         1 8DW      -0.129100
     18 NAR         58.9190    17.6860    12.8860 na         1 8DW      -0.319400
     19 CAO         59.1100    16.3150    12.9080 ca         1 8DW       0.370500
     20 NAN         58.6230    15.3920    12.0590 nb         1 8DW      -0.678000
     21 CAM         58.9400    14.0950    12.3090 ca         1 8DW       0.369900
     22 CAL         59.7390    13.6560    13.4070 cp         1 8DW      -0.125000
     23 CAE         60.0530    12.2060    13.6260 cp         1 8DW      -0.080000
     24 CAF         59.1610    11.1850    13.2170 ca         1 8DW      -0.046000
     25 CAD         61.2540    11.7900    14.2580 ca         1 8DW       0.355900
     26 NAC         61.5790    10.4980    14.4920 nb         1 8DW      -0.668000
     27 CAB         60.7080     9.5450    14.0920 ca         1 8DW       0.378900
     28 CAA         59.5020     9.8320    13.4340 ca         1 8DW      -0.196600
     29 CAG         58.6070     8.6860    13.0540 c          1 8DW       0.619700
     30 OAK         58.5830     7.6720    13.7410 o          1 8DW      -0.588100
     31 NAH         57.7290     8.8300    11.9530 n          1 8DW      -0.405800
     32 CAJ         58.1180     9.6330    10.7690 c3         1 8DW       0.086300
     33 CAI         56.6830     7.8110    11.7180 c3         1 8DW       0.086300
     34 H1          64.3540    14.9940    13.9970 h1         1 8DW       0.046700
     35 H2          64.9500    16.2910    15.0520 h1         1 8DW       0.046700
     36 H3          64.2430    14.8130    15.7600 h1         1 8DW       0.046700
     37 H4          64.1190    16.6980    17.2490 ha         1 8DW       0.129000
     38 H5          63.1800    18.0590    19.0780 ha         1 8DW       0.135000
     39 H6          59.5430    18.6270    16.8340 ha         1 8DW       0.137000
     40 H7          60.8270    14.4170    15.1560 ha         1 8DW       0.128000
     41 H8          59.6320    19.3060    14.2010 h4         1 8DW       0.223000
     42 H9          58.3770    18.1870    12.1930 hn         1 8DW       0.366000
     43 H10         58.5450    13.3740    11.5940 h4         1 8DW       0.018100
     44 H11         58.2030    11.4470    12.7740 ha         1 8DW       0.127000
     45 H12         61.9890    12.5240    14.5860 h4         1 8DW       0.021100
     46 H13         61.0040     8.5160    14.2960 h4         1 8DW       0.035100
     47 H14         59.1910     9.8650    10.7890 h1         1 8DW       0.043033
     48 H15         57.9090     9.0720     9.8490 h1         1 8DW       0.043033
     49 H16         57.5430    10.5670    10.7480 h1         1 8DW       0.043033
     50 H17         56.1350     7.6150    12.6490 h1         1 8DW       0.043033
     51 H18         55.9710     8.1660    10.9620 h1         1 8DW       0.043033
     52 H19         57.1440     6.8780    11.3680 h1         1 8DW       0.043033
@<TRIPOS>BOND
     1     1     2 1   
     2     1    34 1   
     3     1    35 1   
     4     1    36 1   
     5     2     3 1   
     6     3     4 ar  
     7     3    13 ar  
     8     4     5 ar  
     9     4    37 1   
    10     5     6 ar  
    11     5    38 1   
    12     6     7 1   
    13     6    12 ar  
    14     7     8 1   
    15     8     9 2   
    16     8    10 2   
    17     8    11 1   
    18    12    13 ar  
    19    12    39 1   
    20    13    14 1   
    21    14    15 1   
    22    14    17 2   
    23    15    16 ar  
    24    15    19 ar  
    25    16    22 ar  
    26    16    40 1   
    27    17    18 1   
    28    17    41 1   
    29    18    19 1   
    30    18    42 1   
    31    19    20 ar  
    32    20    21 ar  
    33    21    22 ar  
    34    21    43 1   
    35    22    23 1   
    36    23    24 ar  
    37    23    25 ar  
    38    24    28 ar  
    39    24    44 1   
    40    25    26 ar  
    41    25    45 1   
    42    26    27 ar  
    43    27    28 ar  
    44    27    46 1   
    45    28    29 1   
    46    29    30 2   
    47    29    31 1   
    48    31    32 1   
    49    31    33 1   
    50    32    47 1   
    51    32    48 1   
    52    32    49 1   
    53    33    50 1   
    54    33    51 1   
    55    33    52 1   
@<TRIPOS>SUBSTRUCTURE
     1 8DW         1 TEMP              0 ****  ****    0 ROOT
