@<TRIPOS>MOLECULE
8DW
   52    55     1     0     0
SMALL
abcg2


@<TRIPOS>ATOM
      1 CBB         64.4180    15.8540    14.9690 c3         1 8DW       0.142900
      2 OBA         63.1020    16.3620    14.8680 os         1 8DW      -0.325100
      3 CAZ         62.5510    16.9620    15.9310 ca         1 8DW       0.163100
      4 CAY         63.2120    17.1590    17.1410 ca         1 8DW      -0.189000
      5 CAX         62.5730    17.8010    18.1930 ca         1 8DW      -0.055000
      6 CAW         61.2740    18.2260    18.0250 ca         1 8DW       0.080100
      7 OBC         60.6120    18.7590    19.1410 os         1 8DW      -0.480800
      8 SBD         60.3280    20.3090    19.2620 s6         1 8DW       1.582600
      9 OBG         61.1830    21.0800    18.4170 o          1 8DW      -0.545000
     10 OBF         60.1240    20.5800    20.6480 o          1 8DW      -0.545000
     11 FBE         58.8900    20.3390    18.5920 f          1 8DW      -0.277900
     12 CAV         60.5960    18.0420    16.8330 ca         1 8DW      -0.081000
     13 CAU         61.2280    17.4130    15.7680 ca         1 8DW      -0.026800
     14 CAT         60.5180    17.2190    14.5020 cc         1 8DW      -0.079400
     15 CAP         60.2470    15.9830    13.8320 ca         1 8DW      -0.112800
     16 CAQ         60.5010    14.6410    14.0780 ca         1 8DW      -0.002000
     17 CAS         59.9230    18.1940    13.7480 cd         1 8DW      -0.129100
     18 NAR         59.3140    17.6430    12.6570 na         1 8DW      -0.319400
     19 CAO         59.4870    16.2950    12.6840 ca         1 8DW       0.370500
     20 NAN         59.0130    15.4280    11.8040 nb         1 8DW      -0.678000
     21 CAM         59.2740    14.1590    12.0630 ca         1 8DW       0.369900
     22 CAL         59.9970    13.7060    13.1820 cp         1 8DW      -0.125000
     23 CAE         60.1940    12.2650    13.4000 cp         1 8DW      -0.080000
     24 CAF         59.1690    11.3480    13.1940 ca         1 8DW      -0.046000
     25 CAD         61.4170    11.7590    13.8410 ca         1 8DW       0.355900
     26 NAC         61.6390    10.4770    14.0920 nb         1 8DW      -0.668000
     27 CAB         60.6430     9.6210    13.9140 ca         1 8DW       0.378900
     28 CAA         59.3910    10.0020    13.4450 ca         1 8DW      -0.196600
     29 CAG         58.2950     8.9860    13.3690 c          1 8DW       0.619700
     30 OAK         58.0750     8.2770    14.3430 o          1 8DW      -0.588100
     31 NAH         57.5720     8.9280    12.2360 n          1 8DW      -0.405800
     32 CAJ         57.9760     9.4970    10.9650 c3         1 8DW       0.086300
     33 CAI         56.4170     8.0560    12.1750 c3         1 8DW       0.086300
     34 H1          64.6450    15.4010    14.0080 h1         1 8DW       0.046700
     35 H2          65.1460    16.6460    15.1660 h1         1 8DW       0.046700
     36 H3          64.5030    15.0920    15.7470 h1         1 8DW       0.046700
     37 H4          64.2300    16.8250    17.2850 ha         1 8DW       0.129000
     38 H5          63.0860    17.9450    19.1340 ha         1 8DW       0.135000
     39 H6          59.5650    18.3540    16.7250 ha         1 8DW       0.137000
     40 H7          61.0410    14.3250    14.9620 ha         1 8DW       0.128000
     41 H8          59.9020    19.2600    13.9100 h4         1 8DW       0.223000
     42 H9          58.8140    18.1550    11.9470 hn         1 8DW       0.366000
     43 H10         58.9020    13.4390    11.3410 h4         1 8DW       0.018100
     44 H11         58.1930    11.6870    12.8660 ha         1 8DW       0.127000
     45 H12         62.2570    12.4310    13.9910 h4         1 8DW       0.021100
     46 H13         60.8490     8.5800    14.1400 h4         1 8DW       0.035100
     47 H14         58.9800     9.9060    11.0080 h1         1 8DW       0.043033
     48 H15         57.9720     8.7170    10.2020 h1         1 8DW       0.043033
     49 H16         57.2910    10.2850    10.6490 h1         1 8DW       0.043033
     50 H17         55.9440     7.9680    13.1480 h1         1 8DW       0.043033
     51 H18         55.6940     8.4780    11.4780 h1         1 8DW       0.043033
     52 H19         56.6860     7.0560    11.8240 h1         1 8DW       0.043033
@<TRIPOS>BOND
     1     1     2 1   
     2     1    34 1   
     3     1    35 1   
     4     1    36 1   
     5     2     3 1   
     6     3     4 ar  
     7     3    13 ar  
     8     4     5 ar  
     9     4    37 1   
    10     5     6 ar  
    11     5    38 1   
    12     6     7 1   
    13     6    12 ar  
    14     7     8 1   
    15     8     9 2   
    16     8    10 2   
    17     8    11 1   
    18    12    13 ar  
    19    12    39 1   
    20    13    14 1   
    21    14    15 1   
    22    14    17 2   
    23    15    16 ar  
    24    15    19 ar  
    25    16    22 ar  
    26    16    40 1   
    27    17    18 1   
    28    17    41 1   
    29    18    19 1   
    30    18    42 1   
    31    19    20 ar  
    32    20    21 ar  
    33    21    22 ar  
    34    21    43 1   
    35    22    23 1   
    36    23    24 ar  
    37    23    25 ar  
    38    24    28 ar  
    39    24    44 1   
    40    25    26 ar  
    41    25    45 1   
    42    26    27 ar  
    43    27    28 ar  
    44    27    46 1   
    45    28    29 1   
    46    29    30 2   
    47    29    31 1   
    48    31    32 1   
    49    31    33 1   
    50    32    47 1   
    51    32    48 1   
    52    32    49 1   
    53    33    50 1   
    54    33    51 1   
    55    33    52 1   
@<TRIPOS>SUBSTRUCTURE
     1 8DW         1 TEMP              0 ****  ****    0 ROOT
