@<TRIPOS>MOLECULE
8DX
   34    35     1     0     0
SMALL
abcg2


@<TRIPOS>ATOM
      1 O            4.5170    -1.2700     0.0560 o          1 8DX      -0.758000
      2 C            3.9670    -0.1560    -0.0640 c          1 8DX       0.715000
      3 OXT          4.4790     0.9520     0.1930 o          1 8DX      -0.758000
      4 CA           2.4910    -0.1390    -0.5260 c3         1 8DX       0.032500
      5 N            2.1780    -1.3440    -1.2810 n8         1 8DX      -0.998200
      6 CB           1.6200     0.1110     0.7170 c3         1 8DX      -0.071400
      7 CAS          0.1200     0.3120     0.4780 c5         1 8DX       0.038000
      8 CAJ         -0.6090     0.6580     1.7880 c5         1 8DX      -0.087400
      9 CAN         -0.0990     1.4210    -0.5800 c          1 8DX       0.740000
     10 OAC         -0.6820     1.1240    -1.6480 o          1 8DX      -0.719500
     11 OAE          0.3570     2.5380    -0.2860 o          1 8DX      -0.719500
     12 OAL         -0.4780    -0.9100     0.0510 os         1 8DX      -0.442000
     13 CAR         -1.5560    -1.2810     0.8880 c5         1 8DX       0.148300
     14 CAQ         -1.9630     0.0050     1.6020 c5         1 8DX       0.129300
     15 CAH         -2.6700    -1.9200     0.0780 c6         1 8DX      -0.108400
     16 CAP         -3.4730    -0.8990    -0.7290 c6         1 8DX       0.183300
     17 OAF         -2.8260    -0.4530    -1.8900 oh         1 8DX      -0.775000
     18 CAG         -3.8710     0.2320     0.2100 c6         1 8DX       0.126600
     19 OAK         -2.7470     0.8560     0.7930 os         1 8DX      -0.419000
     20 HA           2.3740     0.7260    -1.1880 h1         1 8DX       0.076700
     21 HN           2.5890    -2.1290    -0.7920 hn         1 8DX       0.381500
     22 HNA          1.1780    -1.4960    -1.2820 hn         1 8DX       0.381500
     23 HB           1.7450    -0.7220     1.4200 hc         1 8DX       0.033200
     24 HBA          1.9950     1.0030     1.2200 hc         1 8DX       0.033200
     25 HAJ         -0.1030     0.1970     2.6420 hc         1 8DX       0.050200
     26 HAJA        -0.6630     1.7300     1.9760 hc         1 8DX       0.050200
     27 HAR         -1.2130    -1.9950     1.6520 h1         1 8DX       0.009700
     28 HAQ         -2.4780    -0.2150     2.5470 h1         1 8DX       0.005700
     29 HAH         -2.2670    -2.7020    -0.5700 hc         1 8DX       0.030200
     30 HAHA        -3.3470    -2.4190     0.7770 hc         1 8DX       0.030200
     31 HAP         -4.4020    -1.3810    -1.0570 h1         1 8DX       0.014700
     32 HOAF        -1.9910     0.0270    -1.6700 ho         1 8DX       0.606000
     33 HAG         -4.4140     1.0100    -0.3310 h1         1 8DX       0.019700
     34 HAGA        -4.5440    -0.1650     0.9840 h1         1 8DX       0.019700
@<TRIPOS>BOND
     1     1     2 1   
     2     2     3 1   
     3     2     4 1   
     4     4     5 1   
     5     4     6 1   
     6     4    20 1   
     7     5    21 1   
     8     5    22 1   
     9     6     7 1   
    10     6    23 1   
    11     6    24 1   
    12     7     8 1   
    13     7     9 1   
    14     7    12 1   
    15     8    14 1   
    16     8    25 1   
    17     8    26 1   
    18     9    10 1   
    19     9    11 1   
    20    12    13 1   
    21    13    14 1   
    22    13    15 1   
    23    13    27 1   
    24    14    19 1   
    25    14    28 1   
    26    15    16 1   
    27    15    29 1   
    28    15    30 1   
    29    16    17 1   
    30    16    18 1   
    31    16    31 1   
    32    17    32 1   
    33    18    19 1   
    34    18    33 1   
    35    18    34 1   
@<TRIPOS>SUBSTRUCTURE
     1 8DX         1 TEMP              0 ****  ****    0 ROOT
