@<TRIPOS>MOLECULE
8DX
   34    35     1     0     0
SMALL
No Charge or Current Charge


@<TRIPOS>ATOM
      1 O            4.6370    -0.8480     0.4880 o          1 8DX      -0.758000
      2 C            4.0890     0.0040    -0.2020 c          1 8DX       0.715000
      3 OXT          4.7010     0.9310    -0.7180 o          1 8DX      -0.758000
      4 CA           2.5440    -0.1530    -0.5230 c3         1 8DX       0.032500
      5 N            2.1250    -1.4300    -1.2020 n8         1 8DX      -0.998200
      6 CB           1.6870     0.0710     0.7570 c3         1 8DX      -0.071400
      7 CAS          0.1500     0.2690     0.5490 c5         1 8DX       0.038000
      8 CAJ         -0.5970     0.5720     1.8970 c5         1 8DX      -0.087400
      9 CAN         -0.1430     1.4620    -0.4590 c          1 8DX       0.740000
     10 OAC         -0.8260     1.2490    -1.4560 o          1 8DX      -0.719500
     11 OAE          0.3630     2.5600    -0.2600 o          1 8DX      -0.719500
     12 OAL         -0.4470    -0.9820     0.0640 os         1 8DX      -0.442000
     13 CAR         -1.5930    -1.3350     0.8730 c5         1 8DX       0.148300
     14 CAQ         -1.9920    -0.0400     1.6440 c5         1 8DX       0.129300
     15 CAH         -2.7260    -1.9590     0.0210 c6         1 8DX      -0.108400
     16 CAP         -3.4960    -0.8970    -0.8020 c6         1 8DX       0.183300
     17 OAF         -2.7150    -0.4680    -1.9290 oh         1 8DX      -0.775000
     18 CAG         -3.8990     0.2990     0.1150 c6         1 8DX       0.126600
     19 OAK         -2.7550     0.8620     0.7940 os         1 8DX      -0.419000
     20 HA           2.3080     0.6690    -1.2130 h1         1 8DX       0.076700
     21 HN           2.4850    -2.2170    -0.6500 hn         1 8DX       0.381500
     22 HNA          1.1050    -1.5060    -1.0750 hn         1 8DX       0.381500
     23 HB           1.8600    -0.7640     1.4480 hc         1 8DX       0.033200
     24 HBA          2.0830     0.9570     1.2690 hc         1 8DX       0.033200
     25 HAJ         -0.1110     0.0770     2.7450 hc         1 8DX       0.050200
     26 HAJA        -0.6420     1.6400     2.1380 hc         1 8DX       0.050200
     27 HAR         -1.2530    -2.0950     1.5890 h1         1 8DX       0.009700
     28 HAQ         -2.5560    -0.2410     2.5650 h1         1 8DX       0.005700
     29 HAH         -2.3260    -2.7460    -0.6330 hc         1 8DX       0.030200
     30 HAHA        -3.4330    -2.4570     0.6990 hc         1 8DX       0.030200
     31 HAP         -4.4200    -1.3650    -1.1720 h1         1 8DX       0.014700
     32 HOAF        -1.9880     0.1430    -1.5740 ho         1 8DX       0.606000
     33 HAG         -4.3830     1.0860    -0.4810 h1         1 8DX       0.019700
     34 HAGA        -4.6220    -0.0420     0.8700 h1         1 8DX       0.019700
@<TRIPOS>BOND
     1     1     2 1   
     2     2     3 1   
     3     2     4 1   
     4     4     5 1   
     5     4     6 1   
     6     4    20 1   
     7     5    21 1   
     8     5    22 1   
     9     6     7 1   
    10     6    23 1   
    11     6    24 1   
    12     7     8 1   
    13     7     9 1   
    14     7    12 1   
    15     8    14 1   
    16     8    25 1   
    17     8    26 1   
    18     9    10 1   
    19     9    11 1   
    20    12    13 1   
    21    13    14 1   
    22    13    15 1   
    23    13    27 1   
    24    14    19 1   
    25    14    28 1   
    26    15    16 1   
    27    15    29 1   
    28    15    30 1   
    29    16    17 1   
    30    16    18 1   
    31    16    31 1   
    32    17    32 1   
    33    18    19 1   
    34    18    33 1   
    35    18    34 1   
@<TRIPOS>SUBSTRUCTURE
     1 8DX         1 TEMP              0 ****  ****    0 ROOT
