@<TRIPOS>MOLECULE
8DY
   56    58     1     0     0
SMALL
abcg2


@<TRIPOS>ATOM
      1 C1          -4.6420     0.7410    -1.1170 c3         1 8DY      -0.257700
      2 C2          -6.1410     1.0280    -1.1770 c3         1 8DY       0.180800
      3 C3          -6.1500     3.3420    -0.5130 c3         1 8DY       0.153600
      4 O1          -4.0070     1.5720     1.3640 o          1 8DY      -0.513000
      5 O2           5.8020    -1.2810    -0.1410 o          1 8DY      -0.622100
      6 C11          1.2430    -2.2320     0.1730 cp         1 8DY       0.262500
      7 C12          1.4740    -3.6130     0.1450 ca         1 8DY       0.403900
      8 C13          3.7360    -3.3150    -0.0090 ca         1 8DY       0.643900
      9 C14          3.5160    -1.9090     0.0120 ca         1 8DY       0.156500
     10 C15          4.6330    -0.9240    -0.0640 c          1 8DY       0.536600
     11 C16          4.9620     1.5400    -0.0930 ca         1 8DY      -0.019000
     12 C17          4.2360     2.7330    -0.0490 ca         1 8DY      -0.147500
     13 C18          4.8810     3.9560    -0.0970 ca         1 8DY      -0.084000
     14 C19          6.2660     4.0150    -0.1910 ca         1 8DY      -0.134000
     15 C20          6.9870     2.8310    -0.2350 ca         1 8DY      -0.084000
     16 C21          6.3540     1.5960    -0.1880 ca         1 8DY      -0.147500
     17 N           -6.6070     2.0010    -0.2200 n3         1 8DY      -0.724600
     18 C           -4.2850    -0.3980    -2.0600 c3         1 8DY      -0.077100
     19 O           -5.1460    -0.6650     1.0870 o          1 8DY      -0.513000
     20 C10         -1.4730     0.3630     0.3850 ca         1 8DY      -0.017000
     21 C4          -8.0490     1.9580    -0.0970 c3         1 8DY       0.153600
     22 C5          -2.6070    -0.4340     0.4760 ca         1 8DY      -0.263500
     23 C6          -2.5000    -1.8170     0.4750 ca         1 8DY      -0.017000
     24 C7          -1.2500    -2.4030     0.3770 ca         1 8DY      -0.119000
     25 C8          -0.0940    -1.6240     0.2770 cp         1 8DY      -0.064500
     26 C9          -0.2300    -0.2320     0.2820 ca         1 8DY      -0.119000
     27 N1           2.6750    -4.1330     0.0570 nb         1 8DY      -0.748000
     28 N2           4.9360    -3.8880    -0.0900 nv         1 8DY      -1.048900
     29 N3           2.2950    -1.4300     0.1010 nb         1 8DY      -0.615000
     30 N4           4.2190     0.3590    -0.0400 ns         1 8DY      -0.121000
     31 S           -4.2000     0.3400     0.5990 sy         1 8DY       1.047500
     32 H1          -4.0500     1.6270    -1.3620 h1         1 8DY       0.095700
     33 H2          -6.3630     1.3190    -2.2190 h1         1 8DY       0.049200
     34 H3          -6.6700     0.0890    -1.0020 h1         1 8DY       0.049200
     35 H4          -6.4910     3.7080    -1.4940 h1         1 8DY       0.035367
     36 H5          -6.5250     4.0290     0.2460 h1         1 8DY       0.035367
     37 H6          -5.0630     3.4030    -0.4910 h1         1 8DY       0.035367
     38 H7           0.6580    -4.3240     0.1950 h4         1 8DY       0.031100
     39 H8           3.1540     2.7030     0.0220 ha         1 8DY       0.127500
     40 H9           4.2960     4.8650    -0.0600 ha         1 8DY       0.113500
     41 H10          6.7740     4.9700    -0.2300 ha         1 8DY       0.116000
     42 H11          8.0660     2.8590    -0.3070 ha         1 8DY       0.113500
     43 H12          6.9470     0.6980    -0.2250 ha         1 8DY       0.127500
     44 H14         -3.2110    -0.5530    -2.1380 hc         1 8DY       0.048700
     45 H15         -4.7540    -1.3350    -1.7580 hc         1 8DY       0.048700
     46 H16         -4.6520    -0.1510    -3.0570 hc         1 8DY       0.048700
     47 H17         -1.5480     1.4420     0.3960 ha         1 8DY       0.136500
     48 H18         -8.3710     0.9560     0.1910 h1         1 8DY       0.035367
     49 H19         -8.3740     2.6500     0.6800 h1         1 8DY       0.035367
     50 H20         -8.5750     2.2280    -1.0260 h1         1 8DY       0.035367
     51 H21         -3.3770    -2.4440     0.5490 ha         1 8DY       0.136500
     52 H22         -1.1960    -3.4820     0.3840 ha         1 8DY       0.121000
     53 H23          0.6450     0.3970     0.2110 ha         1 8DY       0.121000
     54 H24          5.0000    -4.8910    -0.1030 hn         1 8DY       0.522000
     55 H25          5.7700    -3.3290    -0.1480 hn         1 8DY       0.522000
     56 H26          3.2150     0.4680     0.0270 hn         1 8DY       0.179000
@<TRIPOS>BOND
     1     1     2 1   
     2     1    18 1   
     3     1    31 1   
     4     1    32 1   
     5     2    17 1   
     6     2    33 1   
     7     2    34 1   
     8     3    17 1   
     9     3    35 1   
    10     3    36 1   
    11     3    37 1   
    12     4    31 2   
    13     5    10 2   
    14     6     7 ar  
    15     6    25 1   
    16     6    29 ar  
    17     7    27 ar  
    18     7    38 1   
    19     8     9 ar  
    20     8    27 ar  
    21     8    28 1   
    22     9    10 1   
    23     9    29 ar  
    24    10    30 1   
    25    11    12 ar  
    26    11    16 ar  
    27    11    30 1   
    28    12    13 ar  
    29    12    39 1   
    30    13    14 ar  
    31    13    40 1   
    32    14    15 ar  
    33    14    41 1   
    34    15    16 ar  
    35    15    42 1   
    36    16    43 1   
    37    17    21 1   
    38    18    44 1   
    39    18    45 1   
    40    18    46 1   
    41    19    31 2   
    42    20    22 ar  
    43    20    26 ar  
    44    20    47 1   
    45    21    48 1   
    46    21    49 1   
    47    21    50 1   
    48    22    23 ar  
    49    22    31 1   
    50    23    24 ar  
    51    23    51 1   
    52    24    25 ar  
    53    24    52 1   
    54    25    26 ar  
    55    26    53 1   
    56    28    54 1   
    57    28    55 1   
    58    30    56 1   
@<TRIPOS>SUBSTRUCTURE
     1 8DY         1 TEMP              0 ****  ****    0 ROOT
