@<TRIPOS>MOLECULE
8DY
   56    58     1     0     0
SMALL
No Charge or Current Charge


@<TRIPOS>ATOM
      1 C1          -4.7300     0.6260    -0.9580 c3         1 8DY      -0.257700
      2 C2          -6.1900     1.1060    -1.1370 c3         1 8DY       0.180800
      3 C3          -5.8830     3.4640    -0.4030 c3         1 8DY       0.153600
      4 O1          -4.5190     0.8440     1.6930 o          1 8DY      -0.513000
      5 O2           5.8740    -1.2360    -0.2670 o          1 8DY      -0.622100
      6 C11          1.2880    -2.3370     0.3310 cp         1 8DY       0.262500
      7 C12          1.6170    -3.7350     0.4110 ca         1 8DY       0.403900
      8 C13          3.8380    -3.2830     0.1990 ca         1 8DY       0.643900
      9 C14          3.5690    -1.8780     0.1070 ca         1 8DY       0.156500
     10 C15          4.7060    -0.8880    -0.0920 c          1 8DY       0.536600
     11 C16          5.0050     1.6730    -0.2140 ca         1 8DY      -0.019000
     12 C17          4.2450     2.8580    -0.2340 ca         1 8DY      -0.147500
     13 C18          4.8690     4.1110    -0.3620 ca         1 8DY      -0.084000
     14 C19          6.2660     4.1900    -0.4710 ca         1 8DY      -0.134000
     15 C20          7.0360     3.0160    -0.4500 ca         1 8DY      -0.084000
     16 C21          6.4110     1.7630    -0.3210 ca         1 8DY      -0.147500
     17 N           -6.6320     2.1940    -0.2320 n3         1 8DY      -0.724600
     18 C           -4.3030    -0.2900    -2.1380 c3         1 8DY      -0.077100
     19 O           -5.4190    -1.3400     0.7080 o          1 8DY      -0.513000
     20 C10         -1.7180     0.0300     0.7900 ca         1 8DY      -0.017000
     21 C4          -8.0960     2.4100    -0.2940 c3         1 8DY       0.153600
     22 C5          -2.8050    -0.8350     0.5700 ca         1 8DY      -0.263500
     23 C6          -2.5640    -2.1890     0.2680 ca         1 8DY      -0.017000
     24 C7          -1.2460    -2.6710     0.1910 ca         1 8DY      -0.119000
     25 C8          -0.1280    -1.8210     0.4130 cp         1 8DY      -0.064500
     26 C9          -0.4020    -0.4570     0.7110 ca         1 8DY      -0.119000
     27 N1           2.8920    -4.2140     0.3440 nb         1 8DY      -0.748000
     28 N2           5.0350    -3.8970     0.1660 nv         1 8DY      -1.048900
     29 N3           2.2760    -1.4090     0.1810 nb         1 8DY      -0.615000
     30 N4           4.3000     0.4440    -0.0790 ns         1 8DY      -0.121000
     31 S           -4.4950    -0.1980     0.6570 sy         1 8DY       1.047500
     32 H1          -4.0570     1.4880    -0.9530 h1         1 8DY       0.095700
     33 H2          -6.3150     1.4420    -2.1770 h1         1 8DY       0.049200
     34 H3          -6.8500     0.2340    -1.0180 h1         1 8DY       0.049200
     35 H4          -5.9840     3.8440    -1.4280 h1         1 8DY       0.035367
     36 H5          -6.2610     4.2320     0.2850 h1         1 8DY       0.035367
     37 H6          -4.8150     3.3310    -0.1860 h1         1 8DY       0.035367
     38 H7           0.8420    -4.4850     0.5480 h4         1 8DY       0.031100
     39 H8           3.1600     2.8120    -0.1500 ha         1 8DY       0.127500
     40 H9           4.2700     5.0190    -0.3770 ha         1 8DY       0.113500
     41 H10          6.7520     5.1580    -0.5700 ha         1 8DY       0.116000
     42 H11          8.1200     3.0760    -0.5310 ha         1 8DY       0.113500
     43 H12          7.0390     0.8780    -0.3030 ha         1 8DY       0.127500
     44 H14         -3.2390    -0.5480    -2.0810 hc         1 8DY       0.048700
     45 H15         -4.8840    -1.2210    -2.1480 hc         1 8DY       0.048700
     46 H16         -4.4620     0.2180    -3.0970 hc         1 8DY       0.048700
     47 H17         -1.8840     1.0810     1.0210 ha         1 8DY       0.136500
     48 H18         -8.6360     1.4780    -0.0770 h1         1 8DY       0.035367
     49 H19         -8.4110     3.1590     0.4440 h1         1 8DY       0.035367
     50 H20         -8.3990     2.7590    -1.2900 h1         1 8DY       0.035367
     51 H21         -3.3910    -2.8730     0.0840 ha         1 8DY       0.136500
     52 H22         -1.1030    -3.7180    -0.0610 ha         1 8DY       0.121000
     53 H23          0.4140     0.2370     0.8920 ha         1 8DY       0.121000
     54 H24          5.0110    -4.8800    -0.0760 hn         1 8DY       0.522000
     55 H25          5.8200    -3.3480    -0.1810 hn         1 8DY       0.522000
     56 H26          3.3030     0.5540     0.0550 hn         1 8DY       0.179000
@<TRIPOS>BOND
     1     1     2 1   
     2     1    18 1   
     3     1    31 1   
     4     1    32 1   
     5     2    17 1   
     6     2    33 1   
     7     2    34 1   
     8     3    17 1   
     9     3    35 1   
    10     3    36 1   
    11     3    37 1   
    12     4    31 2   
    13     5    10 2   
    14     6     7 ar  
    15     6    25 1   
    16     6    29 ar  
    17     7    27 ar  
    18     7    38 1   
    19     8     9 ar  
    20     8    27 ar  
    21     8    28 1   
    22     9    10 1   
    23     9    29 ar  
    24    10    30 1   
    25    11    12 ar  
    26    11    16 ar  
    27    11    30 1   
    28    12    13 ar  
    29    12    39 1   
    30    13    14 ar  
    31    13    40 1   
    32    14    15 ar  
    33    14    41 1   
    34    15    16 ar  
    35    15    42 1   
    36    16    43 1   
    37    17    21 1   
    38    18    44 1   
    39    18    45 1   
    40    18    46 1   
    41    19    31 2   
    42    20    22 ar  
    43    20    26 ar  
    44    20    47 1   
    45    21    48 1   
    46    21    49 1   
    47    21    50 1   
    48    22    23 ar  
    49    22    31 1   
    50    23    24 ar  
    51    23    51 1   
    52    24    25 ar  
    53    24    52 1   
    54    25    26 ar  
    55    26    53 1   
    56    28    54 1   
    57    28    55 1   
    58    30    56 1   
@<TRIPOS>SUBSTRUCTURE
     1 8DY         1 TEMP              0 ****  ****    0 ROOT
