@<TRIPOS>MOLECULE
8DZ
   87    89     1     0     0
SMALL
abcg2


@<TRIPOS>ATOM
      1 C01         10.9410    -1.5150    -1.7440 c3         1 8DZ       0.144150
      2 O02         10.1230    -2.3330    -0.9300 os         1 8DZ      -0.323350
      3 C03          8.9290    -1.8560    -0.5440 ca         1 8DZ       0.140600
      4 C04          8.4260    -0.6090    -0.8970 ca         1 8DZ      -0.176000
      5 C05          7.1690    -0.2250    -0.4430 ca         1 8DZ      -0.072600
      6 C06          6.4070    -1.0640     0.3630 ca         1 8DZ      -0.176000
      7 C07          6.9120    -2.3090     0.7210 ca         1 8DZ       0.140600
      8 C08          8.1780    -2.7050     0.2750 ca         1 8DZ       0.053100
      9 O09          8.6860    -3.9020     0.6510 os         1 8DZ      -0.329100
     10 C10          8.3400    -4.9850    -0.2060 c3         1 8DZ       0.149900
     11 O11          6.2680    -3.1960     1.4950 os         1 8DZ      -0.323350
     12 C12          4.9870    -2.8530     1.9880 c3         1 8DZ       0.144150
     13 C13          6.6750     1.1180    -0.8470 c          1 8DZ       0.609200
     14 O14          7.3160     1.8990    -1.5100 o          1 8DZ      -0.492000
     15 O15          5.4550     1.3640    -0.4000 os         1 8DZ      -0.445100
     16 C16          4.8550     2.6290    -0.7050 c3         1 8DZ       0.167600
     17 C17          3.4590     2.6220    -0.1200 c3         1 8DZ      -0.086900
     18 C18          2.7470     3.9410    -0.3990 c3         1 8DZ       0.180300
     19 N19          1.4130     3.9790     0.1670 n3         1 8DZ      -0.724100
     20 C20          1.3830     4.1420     1.6100 c3         1 8DZ       0.180300
     21 C21          0.2790     3.3030     2.2440 c3         1 8DZ      -0.072400
     22 C22         -1.1490     3.7600     1.9860 c3         1 8DZ       0.180300
     23 N23         -1.4700     3.9720     0.5820 n3         1 8DZ      -0.724100
     24 C24         -0.7960     5.1620     0.0850 c3         1 8DZ       0.181800
     25 C25          0.5590     4.8970    -0.5600 c3         1 8DZ       0.181800
     26 C26         -2.9070     4.0000     0.3590 c3         1 8DZ       0.180300
     27 C27         -3.5260     2.6060     0.3790 c3         1 8DZ      -0.086900
     28 C28         -5.0200     2.6870     0.1550 c3         1 8DZ       0.167600
     29 O29         -5.5290     1.3470     0.1220 os         1 8DZ      -0.445100
     30 C30         -6.8300     1.1760    -0.0330 c          1 8DZ       0.609200
     31 O31         -7.6190     2.0880    -0.1150 o          1 8DZ      -0.492000
     32 C32         -7.2170    -0.2580    -0.0970 ca         1 8DZ      -0.072600
     33 C33         -8.5730    -0.5510    -0.1880 ca         1 8DZ      -0.176000
     34 C34         -8.9840    -1.8770    -0.2580 ca         1 8DZ       0.140600
     35 C35         -8.0340    -2.9030    -0.2310 ca         1 8DZ       0.053100
     36 C36         -6.6720    -2.5950    -0.1490 ca         1 8DZ       0.140600
     37 C37         -6.2610    -1.2680    -0.0740 ca         1 8DZ      -0.176000
     38 O38         -5.8410    -3.6490    -0.1400 os         1 8DZ      -0.323350
     39 C39         -4.4490    -3.4090    -0.0690 c3         1 8DZ       0.144150
     40 O40         -8.4330    -4.1960    -0.2670 os         1 8DZ      -0.329100
     41 C41         -8.5360    -4.7450    -1.5760 c3         1 8DZ       0.149900
     42 O42        -10.2630    -2.2750    -0.3460 os         1 8DZ      -0.323350
     43 C43        -11.2760    -1.2880    -0.3610 c3         1 8DZ       0.144150
     44 H013        10.4630    -1.2800    -2.6980 h1         1 8DZ       0.044117
     45 H012        11.2100    -0.5820    -1.2430 h1         1 8DZ       0.044117
     46 H011        11.8470    -2.0830    -1.9370 h1         1 8DZ       0.044117
     47 H041         8.9910     0.0640    -1.5250 ha         1 8DZ       0.140500
     48 H061         5.4330    -0.7490     0.7060 ha         1 8DZ       0.140500
     49 H103         7.2610    -5.1470    -0.2350 h1         1 8DZ       0.035367
     50 H102         8.7000    -4.8240    -1.2250 h1         1 8DZ       0.035367
     51 H101         8.8170    -5.8760     0.1960 h1         1 8DZ       0.035367
     52 H121         5.0200    -1.9630     2.6210 h1         1 8DZ       0.044117
     53 H122         4.2700    -2.6860     1.1810 h1         1 8DZ       0.044117
     54 H123         4.6520    -3.6960     2.5860 h1         1 8DZ       0.044117
     55 H162         5.4560     3.4340    -0.2740 h1         1 8DZ       0.048700
     56 H161         4.8260     2.7740    -1.7880 h1         1 8DZ       0.048700
     57 H172         2.8770     1.8060    -0.5550 hc         1 8DZ       0.061450
     58 H171         3.5220     2.4390     0.9550 hc         1 8DZ       0.061450
     59 H182         3.3670     4.7860    -0.0560 h1         1 8DZ       0.029200
     60 H181         2.6550     4.0590    -1.4830 h1         1 8DZ       0.029200
     61 H202         2.3330     3.7980     2.0230 h1         1 8DZ       0.027200
     62 H201         1.3000     5.1980     1.9140 h1         1 8DZ       0.027200
     63 H211         0.4040     2.2750     1.8940 hc         1 8DZ       0.048700
     64 H212         0.4220     3.2880     3.3290 hc         1 8DZ       0.048700
     65 H221        -1.8140     2.9980     2.3960 h1         1 8DZ       0.027200
     66 H222        -1.3460     4.6800     2.5630 h1         1 8DZ       0.027200
     67 H241        -1.4110     5.6400    -0.6800 h1         1 8DZ       0.030200
     68 H242        -0.6880     5.9100     0.8840 h1         1 8DZ       0.030200
     69 H251         1.0340     5.8830    -0.7040 h1         1 8DZ       0.030200
     70 H252         0.4010     4.4830    -1.5610 h1         1 8DZ       0.030200
     71 H261        -3.4250     4.6510     1.0850 h1         1 8DZ       0.029200
     72 H262        -3.0920     4.4350    -0.6260 h1         1 8DZ       0.029200
     73 H272        -3.0600     2.0020    -0.4030 hc         1 8DZ       0.061450
     74 H271        -3.3320     2.1110     1.3330 hc         1 8DZ       0.061450
     75 H281        -5.5050     3.2480     0.9570 h1         1 8DZ       0.048700
     76 H282        -5.2490     3.1850    -0.7910 h1         1 8DZ       0.048700
     77 H331        -9.2890     0.2570    -0.2040 ha         1 8DZ       0.140500
     78 H371        -5.2120    -1.0220    -0.0050 ha         1 8DZ       0.140500
     79 H391        -3.9680    -4.3840    -0.0890 h1         1 8DZ       0.044117
     80 H392        -4.0910    -2.8230    -0.9200 h1         1 8DZ       0.044117
     81 H393        -4.1690    -2.8980     0.8560 h1         1 8DZ       0.044117
     82 H411        -8.8490    -5.7820    -1.4640 h1         1 8DZ       0.035367
     83 H413        -9.2790    -4.2180    -2.1790 h1         1 8DZ       0.035367
     84 H412        -7.5770    -4.7240    -2.1000 h1         1 8DZ       0.035367
     85 H432       -12.2210    -1.8200    -0.4410 h1         1 8DZ       0.044117
     86 H431       -11.2830    -0.6980     0.5590 h1         1 8DZ       0.044117
     87 H433       -11.1780    -0.6140    -1.2150 h1         1 8DZ       0.044117
@<TRIPOS>BOND
     1     1     2 1   
     2     1    44 1   
     3     1    45 1   
     4     1    46 1   
     5     2     3 1   
     6     3     4 ar  
     7     3     8 ar  
     8     4     5 ar  
     9     4    47 1   
    10     5     6 ar  
    11     5    13 1   
    12     6     7 ar  
    13     6    48 1   
    14     7     8 ar  
    15     7    11 1   
    16     8     9 1   
    17     9    10 1   
    18    10    49 1   
    19    10    50 1   
    20    10    51 1   
    21    11    12 1   
    22    12    52 1   
    23    12    53 1   
    24    12    54 1   
    25    13    14 2   
    26    13    15 1   
    27    15    16 1   
    28    16    17 1   
    29    16    55 1   
    30    16    56 1   
    31    17    18 1   
    32    17    57 1   
    33    17    58 1   
    34    18    19 1   
    35    18    59 1   
    36    18    60 1   
    37    19    20 1   
    38    19    25 1   
    39    20    21 1   
    40    20    61 1   
    41    20    62 1   
    42    21    22 1   
    43    21    63 1   
    44    21    64 1   
    45    22    23 1   
    46    22    65 1   
    47    22    66 1   
    48    23    24 1   
    49    23    26 1   
    50    24    25 1   
    51    24    67 1   
    52    24    68 1   
    53    25    69 1   
    54    25    70 1   
    55    26    27 1   
    56    26    71 1   
    57    26    72 1   
    58    27    28 1   
    59    27    73 1   
    60    27    74 1   
    61    28    29 1   
    62    28    75 1   
    63    28    76 1   
    64    29    30 1   
    65    30    31 2   
    66    30    32 1   
    67    32    33 ar  
    68    32    37 ar  
    69    33    34 ar  
    70    33    77 1   
    71    34    35 ar  
    72    34    42 1   
    73    35    36 ar  
    74    35    40 1   
    75    36    37 ar  
    76    36    38 1   
    77    37    78 1   
    78    38    39 1   
    79    39    79 1   
    80    39    80 1   
    81    39    81 1   
    82    40    41 1   
    83    41    82 1   
    84    41    83 1   
    85    41    84 1   
    86    42    43 1   
    87    43    85 1   
    88    43    86 1   
    89    43    87 1   
@<TRIPOS>SUBSTRUCTURE
     1 8DZ         1 TEMP              0 ****  ****    0 ROOT
