@<TRIPOS>MOLECULE
8DZ
   87    89     1     0     0
SMALL
No Charge or Current Charge


@<TRIPOS>ATOM
      1 C01         12.0790    -0.4900    -1.9390 c3         1 8DZ       0.144150
      2 O02         11.3090    -1.5210    -1.2940 os         1 8DZ      -0.323350
      3 C03          9.9970    -1.3350    -0.8850 ca         1 8DZ       0.140600
      4 C04          9.3340    -0.1050    -1.0810 ca         1 8DZ      -0.176000
      5 C05          8.0010     0.0760    -0.6620 ca         1 8DZ      -0.072600
      6 C06          7.3370    -1.0030    -0.0380 ca         1 8DZ      -0.176000
      7 C07          7.9800    -2.2460     0.1700 ca         1 8DZ       0.140600
      8 C08          9.3320    -2.4170    -0.2600 ca         1 8DZ       0.053100
      9 O09         10.0720    -3.5920    -0.1110 os         1 8DZ      -0.329100
     10 C10          9.5890    -4.8040     0.4950 c3         1 8DZ       0.149900
     11 O11          7.2990    -3.2860     0.7860 os         1 8DZ      -0.323350
     12 C12          5.9380    -3.1820     1.2420 c3         1 8DZ       0.144150
     13 C13          7.3110     1.4130    -0.8860 c          1 8DZ       0.609200
     14 O14          7.8630     2.3660    -1.4250 o          1 8DZ      -0.492000
     15 O15          6.0170     1.4540    -0.4300 os         1 8DZ      -0.445100
     16 C16          5.2760     2.6740    -0.5940 c3         1 8DZ       0.167600
     17 C17          3.8740     2.4470    -0.0030 c3         1 8DZ      -0.086900
     18 C18          2.9770     3.7000    -0.1190 c3         1 8DZ       0.180300
     19 N19          1.5620     3.4940     0.2830 n3         1 8DZ      -0.724100
     20 C20          1.3570     3.2160     1.7240 c3         1 8DZ       0.180300
     21 C21          0.1860     2.2480     1.9680 c3         1 8DZ      -0.072400
     22 C22         -1.2340     2.8280     1.8150 c3         1 8DZ       0.180300
     23 N23         -1.5760     3.4230     0.4920 n3         1 8DZ      -0.724100
     24 C24         -0.8040     4.6770     0.2310 c3         1 8DZ       0.181800
     25 C25          0.6760     4.5640    -0.2600 c3         1 8DZ       0.181800
     26 C26         -3.0370     3.6580     0.3300 c3         1 8DZ       0.180300
     27 C27         -3.9100     2.3840     0.2880 c3         1 8DZ      -0.086900
     28 C28         -5.3670     2.6850    -0.1030 c3         1 8DZ       0.167600
     29 O29         -6.0810     1.4380    -0.1030 os         1 8DZ      -0.445100
     30 C30         -7.4160     1.4530    -0.4260 c          1 8DZ       0.609200
     31 O31         -8.0250     2.4770    -0.7120 o          1 8DZ      -0.492000
     32 C32         -8.0720     0.0820    -0.3950 ca         1 8DZ      -0.072600
     33 C33         -9.4410    -0.0490    -0.7040 ca         1 8DZ      -0.176000
     34 C34        -10.0740    -1.3100    -0.6830 ca         1 8DZ       0.140600
     35 C35         -9.3420    -2.4740    -0.3480 ca         1 8DZ       0.053100
     36 C36         -7.9540    -2.3560    -0.0320 ca         1 8DZ       0.140600
     37 C37         -7.3420    -1.0800    -0.0610 ca         1 8DZ      -0.176000
     38 O38         -7.2080    -3.4770     0.2990 os         1 8DZ      -0.323350
     39 C39         -5.8070    -3.4290     0.6280 c3         1 8DZ       0.144150
     40 O40        -10.0570    -3.6740    -0.3550 os         1 8DZ      -0.329100
     41 C41         -9.5080    -4.9680    -0.0460 c3         1 8DZ       0.149900
     42 O42        -11.4200    -1.4460    -0.9860 os         1 8DZ      -0.323350
     43 C43        -12.2570    -0.3310    -1.3390 c3         1 8DZ       0.144150
     44 H013        11.6050    -0.1790    -2.8790 h1         1 8DZ       0.044117
     45 H012        12.1820     0.3860    -1.2870 h1         1 8DZ       0.044117
     46 H011        13.0850    -0.8590    -2.1730 h1         1 8DZ       0.044117
     47 H041         9.8440     0.7260    -1.5610 ha         1 8DZ       0.140500
     48 H061         6.3110    -0.8610     0.2830 ha         1 8DZ       0.140500
     49 H103         9.3050    -4.6350     1.5410 h1         1 8DZ       0.035367
     50 H102         8.7260    -5.2020    -0.0550 h1         1 8DZ       0.035367
     51 H101        10.3740    -5.5700     0.4820 h1         1 8DZ       0.035367
     52 H121         5.8390    -2.3940     2.0000 h1         1 8DZ       0.044117
     53 H122         5.2620    -2.9600     0.4070 h1         1 8DZ       0.044117
     54 H123         5.6180    -4.1290     1.6950 h1         1 8DZ       0.044117
     55 H162         5.7670     3.5030    -0.0660 h1         1 8DZ       0.048700
     56 H161         5.1890     2.9390    -1.6570 h1         1 8DZ       0.048700
     57 H172         3.3940     1.6140    -0.5310 hc         1 8DZ       0.061450
     58 H171         3.9830     2.1510     1.0450 hc         1 8DZ       0.061450
     59 H182         3.4200     4.5130     0.4710 h1         1 8DZ       0.029200
     60 H181         3.0050     4.0190    -1.1710 h1         1 8DZ       0.029200
     61 H202         2.2470     2.7420     2.1540 h1         1 8DZ       0.027200
     62 H201         1.2000     4.1470     2.2870 h1         1 8DZ       0.027200
     63 H211         0.2920     1.3840     1.3000 hc         1 8DZ       0.048700
     64 H212         0.2760     1.8580     2.9880 hc         1 8DZ       0.048700
     65 H221        -1.9150     2.0010     2.0430 h1         1 8DZ       0.027200
     66 H222        -1.3860     3.5780     2.6040 h1         1 8DZ       0.027200
     67 H241        -1.3210     5.2790    -0.5300 h1         1 8DZ       0.030200
     68 H242        -0.8070     5.2920     1.1410 h1         1 8DZ       0.030200
     69 H251         1.1390     5.5430    -0.0780 h1         1 8DZ       0.030200
     70 H252         0.6400     4.4450    -1.3510 h1         1 8DZ       0.030200
     71 H261        -3.4040     4.3130     1.1330 h1         1 8DZ       0.029200
     72 H262        -3.2090     4.1900    -0.6160 h1         1 8DZ       0.029200
     73 H272        -3.4830     1.6800    -0.4360 hc         1 8DZ       0.061450
     74 H271        -3.9110     1.8920     1.2660 hc         1 8DZ       0.061450
     75 H281        -5.8050     3.3850     0.6210 h1         1 8DZ       0.048700
     76 H282        -5.3930     3.1500    -1.0980 h1         1 8DZ       0.048700
     77 H331       -10.0010     0.8450    -0.9610 ha         1 8DZ       0.140500
     78 H371        -6.2880    -0.9770     0.1770 ha         1 8DZ       0.140500
     79 H391        -5.4370    -4.4360     0.8540 h1         1 8DZ       0.044117
     80 H392        -5.2220    -3.0340    -0.2130 h1         1 8DZ       0.044117
     81 H393        -5.6340    -2.7980     1.5090 h1         1 8DZ       0.044117
     82 H411       -10.2870    -5.7360    -0.1270 h1         1 8DZ       0.035367
     83 H413        -8.7050    -5.2310    -0.7470 h1         1 8DZ       0.035367
     84 H412        -9.1180    -4.9950     0.9790 h1         1 8DZ       0.035367
     85 H432       -13.2810    -0.6720    -1.5370 h1         1 8DZ       0.044117
     86 H431       -12.2970     0.4020    -0.5230 h1         1 8DZ       0.044117
     87 H433       -11.8850     0.1660    -2.2440 h1         1 8DZ       0.044117
@<TRIPOS>BOND
     1     1     2 1   
     2     1    44 1   
     3     1    45 1   
     4     1    46 1   
     5     2     3 1   
     6     3     4 ar  
     7     3     8 ar  
     8     4     5 ar  
     9     4    47 1   
    10     5     6 ar  
    11     5    13 1   
    12     6     7 ar  
    13     6    48 1   
    14     7     8 ar  
    15     7    11 1   
    16     8     9 1   
    17     9    10 1   
    18    10    49 1   
    19    10    50 1   
    20    10    51 1   
    21    11    12 1   
    22    12    52 1   
    23    12    53 1   
    24    12    54 1   
    25    13    14 2   
    26    13    15 1   
    27    15    16 1   
    28    16    17 1   
    29    16    55 1   
    30    16    56 1   
    31    17    18 1   
    32    17    57 1   
    33    17    58 1   
    34    18    19 1   
    35    18    59 1   
    36    18    60 1   
    37    19    20 1   
    38    19    25 1   
    39    20    21 1   
    40    20    61 1   
    41    20    62 1   
    42    21    22 1   
    43    21    63 1   
    44    21    64 1   
    45    22    23 1   
    46    22    65 1   
    47    22    66 1   
    48    23    24 1   
    49    23    26 1   
    50    24    25 1   
    51    24    67 1   
    52    24    68 1   
    53    25    69 1   
    54    25    70 1   
    55    26    27 1   
    56    26    71 1   
    57    26    72 1   
    58    27    28 1   
    59    27    73 1   
    60    27    74 1   
    61    28    29 1   
    62    28    75 1   
    63    28    76 1   
    64    29    30 1   
    65    30    31 2   
    66    30    32 1   
    67    32    33 ar  
    68    32    37 ar  
    69    33    34 ar  
    70    33    77 1   
    71    34    35 ar  
    72    34    42 1   
    73    35    36 ar  
    74    35    40 1   
    75    36    37 ar  
    76    36    38 1   
    77    37    78 1   
    78    38    39 1   
    79    39    79 1   
    80    39    80 1   
    81    39    81 1   
    82    40    41 1   
    83    41    82 1   
    84    41    83 1   
    85    41    84 1   
    86    42    43 1   
    87    43    85 1   
    88    43    86 1   
    89    43    87 1   
@<TRIPOS>SUBSTRUCTURE
     1 8DZ         1 TEMP              0 ****  ****    0 ROOT
