@<TRIPOS>MOLECULE
8E1
   37    40     1     0     0
SMALL
No Charge or Current Charge


@<TRIPOS>ATOM
      1 C1           3.3610     0.9200     0.2460 ca         1 8E1       0.029500
      2 N1          -5.5690     2.5950    -0.2880 nc         1 8E1      -0.513100
      3 O1           6.1850     1.8480    -0.3280 o          1 8E1      -0.544500
      4 S1           6.0520     0.3960    -0.2310 sy         1 8E1       1.132600
      5 C2           4.3250    -0.0540    -0.0840 ca         1 8E1      -0.309500
      6 O2           6.7490    -0.5300    -1.1230 o          1 8E1      -0.544500
      7 C3           3.9280    -1.3880    -0.2990 ca         1 8E1       0.029500
      8 C4           2.5730    -1.7410    -0.1850 ca         1 8E1      -0.183000
      9 C5           1.6100    -0.7740     0.1370 ca         1 8E1       0.355000
     10 C6          -0.9070    -0.4240     0.1380 c2         1 8E1       0.149000
     11 C7          -2.1290    -1.0140     0.1490 cc         1 8E1      -0.276400
     12 C8          -3.4480    -0.3810     0.0470 ca         1 8E1      -0.039800
     13 C9          -4.4010    -1.3870     0.1040 ca         1 8E1       0.064600
     14 C10         -5.7760    -1.1330     0.0340 ca         1 8E1      -0.137000
     15 C11         -6.1890     0.2130    -0.0990 ca         1 8E1      -0.026000
     16 C12         -5.2260     1.2520    -0.1580 ca         1 8E1       0.062400
     17 C13         -3.8680     0.9530    -0.0850 ca         1 8E1      -0.138000
     18 C14         -4.4180     3.2890    -0.3090 cd         1 8E1       0.394100
     19 C15         -2.3560    -2.4780     0.2690 c          1 8E1       0.581200
     20 N3           6.6100     0.0510     1.2660 n8         1 8E1      -1.003100
     21 C            2.0090     0.5550     0.3560 ca         1 8E1      -0.183000
     22 N            0.2750    -1.1570     0.2460 nu         1 8E1      -0.807000
     23 O           -1.5450    -3.3880     0.3700 o          1 8E1      -0.577000
     24 N2          -3.7180    -2.5940     0.2340 ns         1 8E1      -0.389100
     25 S           -2.8800     2.3990    -0.1770 ss         1 8E1      -0.011200
     26 H1           3.6500     1.9560     0.4180 ha         1 8E1       0.140500
     27 H2           4.6620    -2.1530    -0.5520 ha         1 8E1       0.140500
     28 H3           2.2750    -2.7720    -0.3530 ha         1 8E1       0.127500
     29 H4          -0.8060     0.6570     0.0350 h4         1 8E1       0.202000
     30 H5          -6.5020    -1.9410     0.0800 ha         1 8E1       0.126000
     31 H6          -7.2470     0.4530    -0.1570 ha         1 8E1       0.136000
     32 H7          -4.3740     4.3670    -0.4020 h5         1 8E1       0.060800
     33 H8           5.7610     0.0810     1.8250 hn         1 8E1       0.472500
     34 H9           7.0870     0.9190     1.4990 hn         1 8E1       0.472500
     35 H10          1.2780     1.3120     0.6220 ha         1 8E1       0.127500
     36 H11          0.1300    -2.1730     0.2650 hn         1 8E1       0.536000
     37 H12         -4.1830    -3.4910     0.2930 hn         1 8E1       0.341500
@<TRIPOS>BOND
     1     1     5 ar  
     2     1    21 ar  
     3     1    26 1   
     4     2    16 1   
     5     2    18 2   
     6     3     4 2   
     7     4     5 1   
     8     4     6 2   
     9     4    20 1   
    10     5     7 ar  
    11     7     8 ar  
    12     7    27 1   
    13     8     9 ar  
    14     8    28 1   
    15     9    21 ar  
    16     9    22 1   
    17    10    11 2   
    18    10    22 1   
    19    10    29 1   
    20    11    12 1   
    21    11    19 1   
    22    12    13 ar  
    23    12    17 ar  
    24    13    14 ar  
    25    13    24 1   
    26    14    15 ar  
    27    14    30 1   
    28    15    16 ar  
    29    15    31 1   
    30    16    17 ar  
    31    17    25 1   
    32    18    25 1   
    33    18    32 1   
    34    19    23 2   
    35    19    24 1   
    36    20    33 1   
    37    20    34 1   
    38    21    35 1   
    39    22    36 1   
    40    24    37 1   
@<TRIPOS>SUBSTRUCTURE
     1 8E1         1 TEMP              0 ****  ****    0 ROOT
