@<TRIPOS>MOLECULE
8E1
   37    40     1     0     0
SMALL
bcc


@<TRIPOS>ATOM
      1 C1           3.2210     0.9490    -0.0550 ca         1 8E1       0.011500
      2 N1          -5.4410     2.6010    -0.0720 nc         1 8E1      -0.513100
      3 O1           5.9560     1.9270    -0.3800 o          1 8E1      -0.615300
      4 S1           5.9200     0.5010    -0.0830 sy         1 8E1       1.274200
      5 C2           4.2310    -0.0000    -0.0480 ca         1 8E1      -0.309500
      6 O2           6.6830    -0.3990    -0.9370 o          1 8E1      -0.615300
      7 C3           3.9240    -1.3570    -0.0260 ca         1 8E1       0.011500
      8 C4           2.6050    -1.7550    -0.0090 ca         1 8E1      -0.201000
      9 C5           1.5750    -0.8070    -0.0130 ca         1 8E1       0.216600
     10 C6          -0.8510    -0.5440    -0.0090 c2         1 8E1       0.199000
     11 C7          -2.1060    -1.0690     0.0240 cc         1 8E1      -0.276400
     12 C8          -3.3800    -0.3890     0.0160 ca         1 8E1      -0.039800
     13 C9          -4.3730    -1.3740     0.0740 ca         1 8E1       0.064600
     14 C10         -5.7330    -1.0840     0.0870 ca         1 8E1      -0.155000
     15 C11         -6.1300     0.2410     0.0400 ca         1 8E1      -0.044000
     16 C12         -5.1690     1.2520    -0.0210 ca         1 8E1       0.062400
     17 C13         -3.7970     0.9330    -0.0320 ca         1 8E1      -0.011100
     18 C14         -4.3630     3.2910    -0.1210 cd         1 8E1       0.394100
     19 C15         -2.3970    -2.5070     0.0880 c          1 8E1       0.723700
     20 N3           6.3920     0.1530     1.4620 n8         1 8E1      -0.892700
     21 C            1.8960     0.5510    -0.0350 ca         1 8E1      -0.201000
     22 N            0.2730    -1.2760     0.0070 nu         1 8E1      -0.613400
     23 O           -1.6000    -3.4380     0.1140 o          1 8E1      -0.652500
     24 N2          -3.7600    -2.6150     0.1140 ns         1 8E1      -0.456100
     25 S           -2.8710     2.3890    -0.1110 ss         1 8E1      -0.138100
     26 H1           3.4490     2.0060    -0.0760 ha         1 8E1       0.158500
     27 H2           4.7030    -2.1060    -0.0210 ha         1 8E1       0.158500
     28 H3           2.3680    -2.8110     0.0060 ha         1 8E1       0.145500
     29 H4          -0.7240     0.5300    -0.0490 h4         1 8E1       0.152000
     30 H5          -6.4670    -1.8770     0.1330 ha         1 8E1       0.144000
     31 H6          -7.1810     0.5000     0.0480 ha         1 8E1       0.154000
     32 H7          -4.3330     4.3710    -0.1670 h5         1 8E1       0.060800
     33 H8           6.0180     0.8070     2.1430 hn         1 8E1       0.417300
     34 H9           7.4040     0.1110     1.5400 hn         1 8E1       0.417300
     35 H10          1.1350     1.3170    -0.0370 ha         1 8E1       0.145500
     36 H11          0.1470    -2.2830     0.0400 hn         1 8E1       0.480800
     37 H12         -4.2480    -3.4960     0.1670 hn         1 8E1       0.341500
@<TRIPOS>BOND
     1     1     5 ar  
     2     1    21 ar  
     3     1    26 1   
     4     2    16 1   
     5     2    18 2   
     6     3     4 2   
     7     4     5 1   
     8     4     6 2   
     9     4    20 1   
    10     5     7 ar  
    11     7     8 ar  
    12     7    27 1   
    13     8     9 ar  
    14     8    28 1   
    15     9    21 ar  
    16     9    22 1   
    17    10    11 2   
    18    10    22 1   
    19    10    29 1   
    20    11    12 1   
    21    11    19 1   
    22    12    13 ar  
    23    12    17 ar  
    24    13    14 ar  
    25    13    24 1   
    26    14    15 ar  
    27    14    30 1   
    28    15    16 ar  
    29    15    31 1   
    30    16    17 ar  
    31    17    25 1   
    32    18    25 1   
    33    18    32 1   
    34    19    23 2   
    35    19    24 1   
    36    20    33 1   
    37    20    34 1   
    38    21    35 1   
    39    22    36 1   
    40    24    37 1   
@<TRIPOS>SUBSTRUCTURE
     1 8E1         1 TEMP              0 ****  ****    0 ROOT
