@<TRIPOS>MOLECULE
8E3
   35    38     1     0     0
SMALL
abcg2


@<TRIPOS>ATOM
      1 C02          3.4790    -2.1580     0.2370 c          1 8E3       0.620700
      2 C04          3.2370    -0.6860     0.1450 ca         1 8E3      -0.063600
      3 C05          4.2920     0.2170     0.1170 ca         1 8E3      -0.152000
      4 C06          4.0450     1.5870     0.0790 ca         1 8E3       0.179000
      5 C08          2.7830     2.1360     0.0550 ca         1 8E3      -0.144000
      6 C09          1.7420     1.2200     0.0760 ca         1 8E3      -0.064200
      7 C11         -0.1670     0.1430     0.0720 cc         1 8E3       0.388800
      8 C12         -1.5870    -0.0740     0.0430 cc         1 8E3       0.090700
      9 C13         -2.3350    -1.2110     0.0520 cd         1 8E3      -0.090000
     10 C14         -3.6930    -0.7860     0.0040 cd         1 8E3      -0.165300
     11 C15         -3.6570     0.5700    -0.0370 cc         1 8E3       0.107300
     12 C17         -4.8350     1.4790    -0.0760 c6         1 8E3       0.129500
     13 C19         -6.1130    -0.5460     0.3580 c6         1 8E3       0.149800
     14 C20         -4.9870    -1.5310     0.0140 c6         1 8E3      -0.039100
     15 C22          1.9350    -0.1740     0.1330 ca         1 8E3       0.096400
     16 F07          5.1040     2.4140     0.0700 f          1 8E3      -0.177000
     17 N01          4.5150    -2.6110    -0.4850 nt         1 8E3      -0.610000
     18 N10          0.3890     1.3860     0.0430 na         1 8E3      -0.300600
     19 N18         -6.0430     0.7200    -0.3600 n7         1 8E3      -0.848400
     20 N21          0.7250    -0.8130     0.1250 nd         1 8E3      -0.533100
     21 O03          2.7790    -2.8750     0.9350 o          1 8E3      -0.568100
     22 O16         -2.3890     1.0170    -0.0090 os         1 8E3      -0.240000
     23 H1           5.3180    -0.1250     0.1500 ha         1 8E3       0.135000
     24 H2           2.6250     3.2060     0.0210 ha         1 8E3       0.139000
     25 H3          -1.9590    -2.2200     0.0930 ha         1 8E3       0.165000
     26 H4          -4.9420     2.0000     0.8820 h1         1 8E3       0.071700
     27 H5          -4.7150     2.2530    -0.8380 h1         1 8E3       0.071700
     28 H6          -7.0830    -1.0030     0.1580 h1         1 8E3       0.060200
     29 H7          -6.0830    -0.3260     1.4300 h1         1 8E3       0.060200
     30 H8          -5.1700    -1.9890    -0.9630 hc         1 8E3       0.058200
     31 H9          -4.9660    -2.3460     0.7410 hc         1 8E3       0.058200
     32 H10          4.7580    -3.5880    -0.4620 hn         1 8E3       0.315000
     33 H11          5.0070    -2.0270    -1.1380 hn         1 8E3       0.315000
     34 H12         -0.1030     2.2650    -0.0070 hn         1 8E3       0.371000
     35 H13         -6.0930     0.5420    -1.3560 hn         1 8E3       0.414000
@<TRIPOS>BOND
     1     1     2 1   
     2     1    17 1   
     3     1    21 2   
     4     2     3 ar  
     5     2    15 ar  
     6     3     4 ar  
     7     3    23 1   
     8     4     5 ar  
     9     4    16 1   
    10     5     6 ar  
    11     5    24 1   
    12     6    15 ar  
    13     6    18 1   
    14     7     8 1   
    15     7    18 1   
    16     7    20 2   
    17     8     9 2   
    18     8    22 1   
    19     9    10 1   
    20     9    25 1   
    21    10    11 2   
    22    10    14 1   
    23    11    12 1   
    24    11    22 1   
    25    12    19 1   
    26    12    26 1   
    27    12    27 1   
    28    13    14 1   
    29    13    19 1   
    30    13    28 1   
    31    13    29 1   
    32    14    30 1   
    33    14    31 1   
    34    15    20 1   
    35    17    32 1   
    36    17    33 1   
    37    18    34 1   
    38    19    35 1   
@<TRIPOS>SUBSTRUCTURE
     1 8E3         1 TEMP              0 ****  ****    0 ROOT
