@<TRIPOS>MOLECULE
8E3
   35    38     1     0     0
SMALL
No Charge or Current Charge


@<TRIPOS>ATOM
      1 C02          3.4770    -2.2440    -0.0390 c          1 8E3       0.620700
      2 C04          3.2470    -0.7390    -0.0320 ca         1 8E3      -0.063600
      3 C05          4.3400     0.1790    -0.0390 ca         1 8E3      -0.152000
      4 C06          4.1250     1.5750    -0.0320 ca         1 8E3       0.179000
      5 C08          2.8230     2.1000    -0.0190 ca         1 8E3      -0.144000
      6 C09          1.7680     1.1850    -0.0130 ca         1 8E3      -0.064200
      7 C11         -0.1970     0.1790     0.0010 cc         1 8E3       0.388800
      8 C12         -1.6340     0.0890     0.0130 cc         1 8E3       0.090700
      9 C13         -2.3690    -1.0710     0.0160 cd         1 8E3      -0.090000
     10 C14         -3.7200    -0.6690     0.0300 cd         1 8E3      -0.165300
     11 C15         -3.7410     0.6940     0.0290 cc         1 8E3       0.107300
     12 C17         -4.9970     1.5350     0.0680 c6         1 8E3       0.129500
     13 C19         -6.2110    -0.6240     0.3800 c6         1 8E3       0.149800
     14 C20         -4.9750    -1.5110     0.0320 c6         1 8E3      -0.039100
     15 C22          1.9460    -0.1750    -0.0190 ca         1 8E3       0.096400
     16 F07          5.1830     2.4140    -0.0390 f          1 8E3      -0.177000
     17 N01          4.7570    -2.6880    -0.0520 nt         1 8E3      -0.610000
     18 N10          0.4290     1.4200    -0.0010 na         1 8E3      -0.300600
     19 N18         -6.1760     0.6950    -0.3260 n7         1 8E3      -0.848400
     20 N21          0.7060    -0.8210    -0.0100 nd         1 8E3      -0.533100
     21 O03          2.5850    -3.0760    -0.0340 o          1 8E3      -0.568100
     22 O16         -2.4610     1.1980     0.0240 os         1 8E3      -0.240000
     23 H1           5.3680    -0.1710    -0.0490 ha         1 8E3       0.135000
     24 H2           2.6510     3.1730    -0.0140 ha         1 8E3       0.139000
     25 H3          -1.9810    -2.0850     0.0080 ha         1 8E3       0.165000
     26 H4          -5.1450     1.9250     1.0870 h1         1 8E3       0.071700
     27 H5          -4.9070     2.4010    -0.6050 h1         1 8E3       0.071700
     28 H6          -7.1330    -1.1660     0.1180 h1         1 8E3       0.060200
     29 H7          -6.2350    -0.4500     1.4660 h1         1 8E3       0.060200
     30 H8          -5.1190    -1.9670    -0.9570 hc         1 8E3       0.058200
     31 H9          -4.8960    -2.3390     0.7510 hc         1 8E3       0.058200
     32 H10          4.9300    -3.6820    -0.0560 hn         1 8E3       0.315000
     33 H11          5.5250    -2.0350    -0.0560 hn         1 8E3       0.315000
     34 H12         -0.0400     2.3160     0.0060 hn         1 8E3       0.371000
     35 H13         -6.1100     0.5040    -1.3350 hn         1 8E3       0.414000
@<TRIPOS>BOND
     1     1     2 1   
     2     1    17 1   
     3     1    21 2   
     4     2     3 ar  
     5     2    15 ar  
     6     3     4 ar  
     7     3    23 1   
     8     4     5 ar  
     9     4    16 1   
    10     5     6 ar  
    11     5    24 1   
    12     6    15 ar  
    13     6    18 1   
    14     7     8 1   
    15     7    18 1   
    16     7    20 2   
    17     8     9 2   
    18     8    22 1   
    19     9    10 1   
    20     9    25 1   
    21    10    11 2   
    22    10    14 1   
    23    11    12 1   
    24    11    22 1   
    25    12    19 1   
    26    12    26 1   
    27    12    27 1   
    28    13    14 1   
    29    13    19 1   
    30    13    28 1   
    31    13    29 1   
    32    14    30 1   
    33    14    31 1   
    34    15    20 1   
    35    17    32 1   
    36    17    33 1   
    37    18    34 1   
    38    19    35 1   
@<TRIPOS>SUBSTRUCTURE
     1 8E3         1 TEMP              0 ****  ****    0 ROOT
