@<TRIPOS>MOLECULE
8E4
   47    47     1     0     0
SMALL
abcg2


@<TRIPOS>ATOM
      1 C9           5.9850     0.0900    -0.4390 c3         1 8E4      -0.075400
      2 C7           3.4220    -0.0590    -0.2380 c3         1 8E4      -0.058700
      3 C5          -0.1030     0.9500    -0.0140 ca         1 8E4       0.149100
      4 C1          -4.4820    -0.4780     0.3810 c3         1 8E4      -0.113400
      5 C15         -2.5920     2.1130     0.4580 ca         1 8E4      -0.139000
      6 O2           2.6030    -3.7400    -0.0980 oh         1 8E4      -0.670000
      7 C11          3.3400    -1.5100     0.2480 c3         1 8E4      -0.075400
      8 C8           4.7220     0.6030     0.2430 c3         1 8E4      -0.075400
      9 C10          7.2380     0.7970     0.0610 c3         1 8E4      -0.090100
     10 C6           2.2630     0.8090     0.2260 c3         1 8E4       0.166600
     11 O1           1.0480     0.3160    -0.3090 os         1 8E4      -0.352100
     12 C4          -1.2700     0.3540    -0.4960 ca         1 8E4      -0.136000
     13 C13         -0.1860     2.1330     0.7150 ca         1 8E4      -0.196000
     14 C14         -1.4370     2.7020     0.9390 ca         1 8E4      -0.071000
     15 C3          -2.5120     0.9210    -0.2640 ca         1 8E4      -0.072300
     16 C2          -3.7590     0.2260    -0.7660 c3         1 8E4       0.214600
     17 O           -4.6050     1.1000    -1.4840 oh         1 8E4      -0.650000
     18 N           -6.2500    -2.0260     1.0610 n8         1 8E4      -0.995200
     19 H1           6.0940    -0.9860    -0.2810 hc         1 8E4       0.041700
     20 H2           5.8900     0.2310    -1.5200 hc         1 8E4       0.041700
     21 H3           3.4310    -0.0480    -1.3350 hc         1 8E4       0.061700
     22 H4          -3.7590    -1.0810     0.9360 hc         1 8E4       0.055700
     23 H5          -4.8610     0.2730     1.0860 hc         1 8E4       0.055700
     24 H6          -3.5490     2.5830     0.6530 ha         1 8E4       0.108000
     25 H7           1.9110    -4.2930    -0.4690 ho         1 8E4       0.441000
     26 H10          4.3200    -1.9720     0.1000 hc         1 8E4       0.052200
     27 H11          3.1550    -1.5200     1.3280 hc         1 8E4       0.052200
     28 H12          4.8130     0.4730     1.3280 hc         1 8E4       0.039700
     29 H13          4.6590     1.6830     0.0740 hc         1 8E4       0.039700
     30 H14          7.1860     1.8720    -0.1210 hc         1 8E4       0.032700
     31 H15          7.3680     0.6520     1.1350 hc         1 8E4       0.032700
     32 H16          8.1330     0.4200    -0.4350 hc         1 8E4       0.032700
     33 H17          2.2170     0.8220     1.3230 h1         1 8E4       0.034700
     34 H18          2.4270     1.8400    -0.1080 h1         1 8E4       0.034700
     35 H19         -1.1920    -0.5680    -1.0630 ha         1 8E4       0.124000
     36 H20          0.6950     2.6230     1.1060 ha         1 8E4       0.117000
     37 H21         -1.4970     3.6240     1.5030 ha         1 8E4       0.111000
     38 H22         -3.4500    -0.5360    -1.4890 h1         1 8E4       0.075700
     39 H23         -5.1130     1.6290    -0.8600 ho         1 8E4       0.438000
     40 H24         -6.3280    -0.7880    -0.6870 h1         1 8E4       0.033700
     41 H25         -5.2210    -2.1480    -0.7390 h1         1 8E4       0.033700
     42 H26         -6.7170    -1.3280     1.6280 hn         1 8E4       0.391500
     43 H27         -6.9860    -2.6380     0.7320 hn         1 8E4       0.391500
     44 C12          2.3290    -2.3980    -0.4590 c3         1 8E4       0.164600
     45 C           -5.6240    -1.3720    -0.0810 c3         1 8E4       0.148800
     46 H8           2.4180    -2.2540    -1.5440 h1         1 8E4       0.025700
     47 H9           1.3070    -2.1240    -0.1840 h1         1 8E4       0.025700
@<TRIPOS>BOND
     1     1     8 1   
     2     1     9 1   
     3     1    19 1   
     4     1    20 1   
     5     2     7 1   
     6     2     8 1   
     7     2    10 1   
     8     2    21 1   
     9     3    11 1   
    10     3    12 ar  
    11     3    13 ar  
    12     4    16 1   
    13     4    22 1   
    14     4    23 1   
    15     4    45 1   
    16     5    14 ar  
    17     5    15 ar  
    18     5    24 1   
    19     6    25 1   
    20     6    44 1   
    21     7    26 1   
    22     7    27 1   
    23     7    44 1   
    24     8    28 1   
    25     8    29 1   
    26     9    30 1   
    27     9    31 1   
    28     9    32 1   
    29    10    11 1   
    30    10    33 1   
    31    10    34 1   
    32    12    15 ar  
    33    12    35 1   
    34    13    14 ar  
    35    13    36 1   
    36    14    37 1   
    37    15    16 1   
    38    16    17 1   
    39    16    38 1   
    40    17    39 1   
    41    18    42 1   
    42    18    43 1   
    43    18    45 1   
    44    40    45 1   
    45    41    45 1   
    46    44    46 1   
    47    44    47 1   
@<TRIPOS>SUBSTRUCTURE
     1 8E4         1 TEMP              0 ****  ****    0 ROOT
