@<TRIPOS>MOLECULE
8E4
   47    47     1     0     0
SMALL
No Charge or Current Charge


@<TRIPOS>ATOM
      1 C9           6.1060     0.1900    -0.7500 c3         1 8E4      -0.075400
      2 C7           3.5560    -0.0680    -0.1770 c3         1 8E4      -0.058700
      3 C5          -0.0880     0.7560     0.2280 ca         1 8E4       0.149100
      4 C1          -4.8280    -0.4000     0.1950 c3         1 8E4      -0.113400
      5 C15         -2.6520     1.6960     0.9090 ca         1 8E4      -0.139000
      6 O2           2.7520    -3.7630     0.5870 oh         1 8E4      -0.670000
      7 C11          3.6870    -1.5250     0.3720 c3         1 8E4      -0.075400
      8 C8           4.8730     0.7450     0.0050 c3         1 8E4      -0.075400
      9 C10          7.3330     1.1170    -0.6550 c3         1 8E4      -0.090100
     10 C6           2.3690     0.7120     0.4540 c3         1 8E4       0.166600
     11 O1           1.1420     0.2580    -0.1450 os         1 8E4      -0.352100
     12 C4          -1.2270     0.2320    -0.4060 ca         1 8E4      -0.136000
     13 C13         -0.2360     1.7570     1.2120 ca         1 8E4      -0.196000
     14 C14         -1.5170     2.2240     1.5480 ca         1 8E4      -0.071000
     15 C3          -2.5180     0.6900    -0.0720 ca         1 8E4      -0.072300
     16 C2          -3.7400     0.1030    -0.7840 c3         1 8E4       0.214600
     17 O           -4.2980     1.0890    -1.6590 oh         1 8E4      -0.650000
     18 N           -6.9350    -1.6990     0.4760 n8         1 8E4      -0.995200
     19 H1           6.3860    -0.7890    -0.3450 hc         1 8E4       0.041700
     20 H2           5.8520     0.0430    -1.8070 hc         1 8E4       0.041700
     21 H3           3.3670    -0.1320    -1.2560 hc         1 8E4       0.061700
     22 H4          -4.3500    -1.0460     0.9410 hc         1 8E4       0.055700
     23 H5          -5.2650     0.4470     0.7380 hc         1 8E4       0.055700
     24 H6          -3.6340     2.0740     1.1830 ha         1 8E4       0.108000
     25 H7           1.9350    -4.2950     0.4590 ho         1 8E4       0.441000
     26 H10          4.5180    -2.0250    -0.1380 hc         1 8E4       0.052200
     27 H11          3.9490    -1.4890     1.4370 hc         1 8E4       0.052200
     28 H12          5.1090     0.8170     1.0740 hc         1 8E4       0.039700
     29 H13          4.7000     1.7710    -0.3440 hc         1 8E4       0.039700
     30 H14          7.1140     2.0990    -1.0920 hc         1 8E4       0.032700
     31 H15          7.6310     1.2610     0.3900 hc         1 8E4       0.032700
     32 H16          8.1830     0.6840    -1.1970 hc         1 8E4       0.032700
     33 H17          2.3610     0.5580     1.5410 h1         1 8E4       0.034700
     34 H18          2.4920     1.7860     0.2610 h1         1 8E4       0.034700
     35 H19         -1.1000    -0.5370    -1.1630 ha         1 8E4       0.124000
     36 H20          0.6240     2.1820     1.7200 ha         1 8E4       0.117000
     37 H21         -1.6320     2.9970     2.3040 ha         1 8E4       0.111000
     38 H22         -3.4070    -0.7630    -1.3730 h1         1 8E4       0.075700
     39 H23         -4.2690     1.9390    -1.1710 ho         1 8E4       0.438000
     40 H24         -6.4720    -0.5530    -1.2260 h1         1 8E4       0.033700
     41 H25         -5.5210    -2.0490    -1.0400 h1         1 8E4       0.033700
     42 H26         -7.4040    -0.9010     0.9210 hn         1 8E4       0.391500
     43 H27         -7.6950    -2.1730    -0.0280 hn         1 8E4       0.391500
     44 C12          2.4400    -2.4210     0.1970 c3         1 8E4       0.164600
     45 C           -5.9520    -1.1940    -0.5010 c3         1 8E4       0.148800
     46 H8           2.1210    -2.3960    -0.8540 h1         1 8E4       0.025700
     47 H9           1.6180    -2.0350     0.8140 h1         1 8E4       0.025700
@<TRIPOS>BOND
     1     1     8 1   
     2     1     9 1   
     3     1    19 1   
     4     1    20 1   
     5     2     7 1   
     6     2     8 1   
     7     2    10 1   
     8     2    21 1   
     9     3    11 1   
    10     3    12 ar  
    11     3    13 ar  
    12     4    16 1   
    13     4    22 1   
    14     4    23 1   
    15     4    45 1   
    16     5    14 ar  
    17     5    15 ar  
    18     5    24 1   
    19     6    25 1   
    20     6    44 1   
    21     7    26 1   
    22     7    27 1   
    23     7    44 1   
    24     8    28 1   
    25     8    29 1   
    26     9    30 1   
    27     9    31 1   
    28     9    32 1   
    29    10    11 1   
    30    10    33 1   
    31    10    34 1   
    32    12    15 ar  
    33    12    35 1   
    34    13    14 ar  
    35    13    36 1   
    36    14    37 1   
    37    15    16 1   
    38    16    17 1   
    39    16    38 1   
    40    17    39 1   
    41    18    42 1   
    42    18    43 1   
    43    18    45 1   
    44    40    45 1   
    45    41    45 1   
    46    44    46 1   
    47    44    47 1   
@<TRIPOS>SUBSTRUCTURE
     1 8E4         1 TEMP              0 ****  ****    0 ROOT
