@<TRIPOS>MOLECULE
8E6
   35    38     1     0     0
SMALL
No Charge or Current Charge


@<TRIPOS>ATOM
      1 C02         -3.5440     2.3340     0.0180 c          1 8E6       0.621700
      2 C04         -3.3970     0.8190     0.0080 ca         1 8E6      -0.065600
      3 C05         -4.5390    -0.0370     0.0020 ca         1 8E6      -0.151000
      4 C06         -4.4010    -1.4420    -0.0070 ca         1 8E6       0.176000
      5 C08         -3.1310    -2.0380    -0.0110 ca         1 8E6      -0.144000
      6 C09         -2.0270    -1.1830    -0.0050 ca         1 8E6      -0.065200
      7 C11         -0.0110    -0.2880     0.0010 cc         1 8E6       0.509400
      8 C12          1.4210    -0.2620     0.0010 cc         1 8E6      -0.258900
      9 C13          2.1520     0.9030     0.0090 cd         1 8E6      -0.052000
     10 C14          3.5560     0.6750     0.0060 cd         1 8E6      -0.117300
     11 C15          3.8880    -0.6600    -0.0120 cc         1 8E6      -0.169300
     12 C17          5.3180    -1.1480     0.0090 c6         1 8E6      -0.004100
     13 C18          6.2960     0.0130    -0.3230 c6         1 8E6       0.162800
     14 C20          4.5970     1.7810    -0.0030 c6         1 8E6       0.226100
     15 C22         -2.1290     0.1840     0.0040 ca         1 8E6       0.098400
     16 F07         -5.5040    -2.2220    -0.0120 f          1 8E6      -0.177000
     17 N01         -4.7970     2.8480     0.0230 nt         1 8E6      -0.610000
     18 N10         -0.7030    -1.4900    -0.0070 na         1 8E6      -0.311600
     19 N19          5.9320     1.2620     0.3980 n7         1 8E6      -0.862400
     20 N21         -0.8560     0.7600     0.0080 nd         1 8E6      -0.540100
     21 O03         -2.6070     3.1160     0.0230 o          1 8E6      -0.569100
     22 S16          2.4570    -1.6860    -0.0090 ss         1 8E6       0.181000
     23 H1          -5.5460     0.3700     0.0050 ha         1 8E6       0.134000
     24 H2          -3.0180    -3.1190    -0.0180 ha         1 8E6       0.138000
     25 H3           1.7080     1.8960     0.0150 ha         1 8E6       0.161000
     26 H4           5.5600    -1.5490     1.0020 hc         1 8E6       0.059700
     27 H5           5.4670    -1.9720    -0.7020 hc         1 8E6       0.059700
     28 H6           7.3210    -0.2860    -0.0560 h1         1 8E6       0.035200
     29 H7           6.2800     0.2040    -1.4070 h1         1 8E6       0.035200
     30 H8           4.6610     2.2060    -1.0160 h1         1 8E6       0.045700
     31 H9           4.2980     2.5930     0.6760 h1         1 8E6       0.045700
     32 H10         -4.9150     3.8500     0.0290 hn         1 8E6       0.314500
     33 H11         -5.6000     2.2390     0.0190 hn         1 8E6       0.314500
     34 H12         -0.2880    -2.4110    -0.0130 hn         1 8E6       0.363000
     35 H13          6.6340     1.9860     0.1990 hn         1 8E6       0.417000
@<TRIPOS>BOND
     1     1     2 1   
     2     1    17 1   
     3     1    21 2   
     4     2     3 ar  
     5     2    15 ar  
     6     3     4 ar  
     7     3    23 1   
     8     4     5 ar  
     9     4    16 1   
    10     5     6 ar  
    11     5    24 1   
    12     6    15 ar  
    13     6    18 1   
    14     7     8 1   
    15     7    18 1   
    16     7    20 2   
    17     8     9 2   
    18     8    22 1   
    19     9    10 1   
    20     9    25 1   
    21    10    11 2   
    22    10    14 1   
    23    11    12 1   
    24    11    22 1   
    25    12    13 1   
    26    12    26 1   
    27    12    27 1   
    28    13    19 1   
    29    13    28 1   
    30    13    29 1   
    31    14    19 1   
    32    14    30 1   
    33    14    31 1   
    34    15    20 1   
    35    17    32 1   
    36    17    33 1   
    37    18    34 1   
    38    19    35 1   
@<TRIPOS>SUBSTRUCTURE
     1 8E6         1 TEMP              0 ****  ****    0 ROOT
