@<TRIPOS>MOLECULE
8E6
   35    38     1     0     0
SMALL
abcg2


@<TRIPOS>ATOM
      1 C02         -3.5030     2.2710     0.2060 c          1 8E6       0.621700
      2 C04         -3.3740     0.7840     0.1490 ca         1 8E6      -0.065600
      3 C05         -4.4970    -0.0330     0.1470 ca         1 8E6      -0.151000
      4 C06         -4.3610    -1.4190     0.1450 ca         1 8E6       0.176000
      5 C08         -3.1460    -2.0680     0.1320 ca         1 8E6      -0.144000
      6 C09         -2.0360    -1.2360     0.1240 ca         1 8E6      -0.065200
      7 C11         -0.0440    -0.3120     0.0870 cc         1 8E6       0.509400
      8 C12          1.3950    -0.1990     0.0490 cc         1 8E6      -0.258900
      9 C13          2.1220     0.9550     0.1490 cd         1 8E6      -0.052000
     10 C14          3.5190     0.7320     0.0760 cd         1 8E6      -0.117300
     11 C15          3.8360    -0.5860    -0.0880 cc         1 8E6      -0.169300
     12 C17          5.2270    -1.1100    -0.2160 c6         1 8E6      -0.004100
     13 C18          6.1530     0.0660    -0.5160 c6         1 8E6       0.162800
     14 C20          4.5880     1.7800     0.1450 c6         1 8E6       0.226100
     15 C22         -2.1170     0.1690     0.1470 ca         1 8E6       0.098400
     16 F07         -5.4820    -2.1590     0.1620 f          1 8E6      -0.177000
     17 N01         -4.4840     2.7840    -0.5520 nt         1 8E6      -0.610000
     18 N10         -0.7000    -1.5070     0.0910 na         1 8E6      -0.311600
     19 N19          5.8700     1.1510     0.4060 n7         1 8E6      -0.862400
     20 N21         -0.8610     0.7100     0.1180 nd         1 8E6      -0.540100
     21 O03         -2.7710     2.9470     0.9110 o          1 8E6      -0.569100
     22 S16          2.4290    -1.5690    -0.1470 ss         1 8E6       0.181000
     23 H1          -5.4930     0.3900     0.1720 ha         1 8E6       0.134000
     24 H2          -3.0730    -3.1470     0.1250 ha         1 8E6       0.138000
     25 H3           1.6670     1.9270     0.2830 ha         1 8E6       0.161000
     26 H4           5.5330    -1.6010     0.7110 hc         1 8E6       0.059700
     27 H5           5.2980    -1.8550    -1.0110 hc         1 8E6       0.059700
     28 H6           7.1890    -0.2460    -0.3850 h1         1 8E6       0.035200
     29 H7           6.0330     0.3590    -1.5710 h1         1 8E6       0.035200
     30 H8           4.5740     2.3580    -0.7920 h1         1 8E6       0.045700
     31 H9           4.3670     2.4870     0.9480 h1         1 8E6       0.045700
     32 H10         -4.6470     3.7780    -0.5630 hn         1 8E6       0.314500
     33 H11         -4.9900     2.2260    -1.2170 hn         1 8E6       0.314500
     34 H12         -0.2890    -2.4290     0.0840 hn         1 8E6       0.363000
     35 H13          6.6000     1.8480     0.3480 hn         1 8E6       0.417000
@<TRIPOS>BOND
     1     1     2 1   
     2     1    17 1   
     3     1    21 2   
     4     2     3 ar  
     5     2    15 ar  
     6     3     4 ar  
     7     3    23 1   
     8     4     5 ar  
     9     4    16 1   
    10     5     6 ar  
    11     5    24 1   
    12     6    15 ar  
    13     6    18 1   
    14     7     8 1   
    15     7    18 1   
    16     7    20 2   
    17     8     9 2   
    18     8    22 1   
    19     9    10 1   
    20     9    25 1   
    21    10    11 2   
    22    10    14 1   
    23    11    12 1   
    24    11    22 1   
    25    12    13 1   
    26    12    26 1   
    27    12    27 1   
    28    13    19 1   
    29    13    28 1   
    30    13    29 1   
    31    14    19 1   
    32    14    30 1   
    33    14    31 1   
    34    15    20 1   
    35    17    32 1   
    36    17    33 1   
    37    18    34 1   
    38    19    35 1   
@<TRIPOS>SUBSTRUCTURE
     1 8E6         1 TEMP              0 ****  ****    0 ROOT
