@<TRIPOS>MOLECULE
8E7
   41    40     1     0     0
SMALL
bcc


@<TRIPOS>ATOM
      1 C14          8.9230     0.2870     0.0150 c3         1 8E7      -0.088100
      2 C13          7.6480    -0.5430    -0.0370 c3         1 8E7      -0.074400
      3 C12          6.3860     0.3110    -0.0120 c3         1 8E7      -0.075400
      4 C11          5.1010    -0.5050    -0.0550 c3         1 8E7      -0.074400
      5 C10          3.8430     0.3540    -0.0330 c3         1 8E7      -0.074400
      6 S01         -7.6590    -0.2990     0.1030 sh         1 8E7      -0.411900
      7 C02         -6.1220     0.6790     0.0370 c3         1 8E7       0.033700
      8 C03         -4.9360    -0.2730    -0.0010 c3         1 8E7       0.165800
      9 N04         -3.6980     0.4790    -0.0360 n7         1 8E7      -0.807200
     10 C05         -2.5210    -0.3710    -0.0250 c3         1 8E7       0.159800
     11 C06         -1.2420     0.4520    -0.0430 c3         1 8E7      -0.078400
     12 C07          0.0110    -0.4140    -0.0520 c3         1 8E7      -0.074400
     13 C08          1.2990     0.4000    -0.0390 c3         1 8E7      -0.074400
     14 C09          2.5560    -0.4610    -0.0610 c3         1 8E7      -0.074400
     15 H1           8.9820     0.9710    -0.8350 hc         1 8E7       0.031367
     16 H2           8.9620     0.8900     0.9240 hc         1 8E7       0.031367
     17 H3           9.8160    -0.3390    -0.0040 hc         1 8E7       0.031367
     18 H4           7.6480    -1.1620    -0.9400 hc         1 8E7       0.036700
     19 H5           7.6290    -1.2400     0.8070 hc         1 8E7       0.036700
     20 H6           6.3900     0.9350     0.8890 hc         1 8E7       0.036700
     21 H7           6.4040     1.0060    -0.8600 hc         1 8E7       0.036700
     22 H8           5.0980    -1.1320    -0.9540 hc         1 8E7       0.036700
     23 H9           5.0830    -1.1970     0.7950 hc         1 8E7       0.036700
     24 H10          3.8520     0.9870     0.8620 hc         1 8E7       0.037200
     25 H11          3.8570     1.0390    -0.8880 hc         1 8E7       0.037200
     26 H12         -8.5220     0.7210     0.0500 hs         1 8E7       0.214800
     27 H13         -6.1340     1.3040    -0.8560 h1         1 8E7       0.064200
     28 H14         -6.0540     1.3250     0.9120 h1         1 8E7       0.064200
     29 H15         -4.9390    -0.8910     0.9020 h1         1 8E7       0.044700
     30 H16         -5.0450    -0.9630    -0.8530 h1         1 8E7       0.044700
     31 H17         -3.6830     1.0390    -0.8820 hn         1 8E7       0.348800
     32 H19         -2.5460    -0.9780     0.8860 h1         1 8E7       0.030200
     33 H20         -2.5090    -1.0830    -0.8670 h1         1 8E7       0.030200
     34 H21         -1.2390     1.1020    -0.9250 hc         1 8E7       0.045700
     35 H22         -1.2290     1.1140     0.8290 hc         1 8E7       0.045700
     36 H23         -0.0020    -1.0840     0.8150 hc         1 8E7       0.037700
     37 H24          0.0010    -1.0620    -0.9360 hc         1 8E7       0.037700
     38 H25          1.3090     1.0770    -0.9010 hc         1 8E7       0.038200
     39 H26          1.3140     1.0410     0.8490 hc         1 8E7       0.038200
     40 H27          2.5460    -1.0950    -0.9550 hc         1 8E7       0.037200
     41 H28          2.5410    -1.1460     0.7950 hc         1 8E7       0.037200
@<TRIPOS>BOND
     1     1     2 1   
     2     1    15 1   
     3     1    16 1   
     4     1    17 1   
     5     2     3 1   
     6     2    18 1   
     7     2    19 1   
     8     3     4 1   
     9     3    20 1   
    10     3    21 1   
    11     4     5 1   
    12     4    22 1   
    13     4    23 1   
    14     5    14 1   
    15     5    24 1   
    16     5    25 1   
    17     6     7 1   
    18     6    26 1   
    19     7     8 1   
    20     7    27 1   
    21     7    28 1   
    22     8     9 1   
    23     8    29 1   
    24     8    30 1   
    25     9    10 1   
    26     9    31 1   
    27    10    11 1   
    28    10    32 1   
    29    10    33 1   
    30    11    12 1   
    31    11    34 1   
    32    11    35 1   
    33    12    13 1   
    34    12    36 1   
    35    12    37 1   
    36    13    14 1   
    37    13    38 1   
    38    13    39 1   
    39    14    40 1   
    40    14    41 1   
@<TRIPOS>SUBSTRUCTURE
     1 8E7         1 TEMP              0 ****  ****    0 ROOT
