@<TRIPOS>MOLECULE
8E7
   41    40     1     0     0
SMALL
No Charge or Current Charge


@<TRIPOS>ATOM
      1 C14          9.0280     0.3330    -0.0130 c3         1 8E7      -0.088100
      2 C13          7.7380    -0.5110    -0.0240 c3         1 8E7      -0.074400
      3 C12          6.4540     0.3470    -0.0190 c3         1 8E7      -0.075400
      4 C11          5.1620    -0.4980    -0.0300 c3         1 8E7      -0.074400
      5 C10          3.8780     0.3600    -0.0260 c3         1 8E7      -0.074400
      6 S01         -7.8980    -0.1130     0.0650 sh         1 8E7      -0.459800
      7 C02         -6.2270     0.6980     0.0450 c3         1 8E7       0.081600
      8 C03         -5.0500    -0.3000    -0.0260 c3         1 8E7       0.165800
      9 N04         -3.7490     0.4080    -0.0350 n7         1 8E7      -0.862400
     10 C05         -2.5630    -0.4650    -0.0470 c3         1 8E7       0.159800
     11 C06         -1.2760     0.3840    -0.0370 c3         1 8E7      -0.078400
     12 C07          0.0090    -0.4740    -0.0420 c3         1 8E7      -0.074400
     13 C08          1.3010     0.3720    -0.0320 c3         1 8E7      -0.074400
     14 C09          2.5860    -0.4860    -0.0360 c3         1 8E7      -0.074400
     15 H1           9.0750     0.9810    -0.8970 hc         1 8E7       0.031367
     16 H2           9.0710     0.9640     0.8830 hc         1 8E7       0.031367
     17 H3           9.9100    -0.3180    -0.0160 hc         1 8E7       0.031367
     18 H4           7.7420    -1.1550    -0.9110 hc         1 8E7       0.036700
     19 H5           7.7370    -1.1710     0.8520 hc         1 8E7       0.036700
     20 H6           6.4550     0.9920     0.8680 hc         1 8E7       0.036700
     21 H7           6.4600     1.0080    -0.8950 hc         1 8E7       0.036700
     22 H8           5.1610    -1.1430    -0.9180 hc         1 8E7       0.036700
     23 H9           5.1570    -1.1590     0.8460 hc         1 8E7       0.036700
     24 H10          3.8790     1.0050     0.8620 hc         1 8E7       0.037200
     25 H11          3.8830     1.0200    -0.9020 hc         1 8E7       0.037200
     26 H12         -8.6180     1.0350     0.1320 hs         1 8E7       0.214800
     27 H13         -6.1830     1.3730    -0.8200 h1         1 8E7       0.064200
     28 H14         -6.1290     1.3060     0.9540 h1         1 8E7       0.064200
     29 H15         -5.1110    -0.9730     0.8400 h1         1 8E7       0.044700
     30 H16         -5.1600    -0.9130    -0.9310 h1         1 8E7       0.044700
     31 H17         -3.7120     1.0050    -0.8710 hn         1 8E7       0.404000
     32 H19         -2.5650    -1.1230     0.8340 h1         1 8E7       0.030200
     33 H20         -2.5660    -1.1030    -0.9410 h1         1 8E7       0.030200
     34 H21         -1.2710     1.0440    -0.9130 hc         1 8E7       0.045700
     35 H22         -1.2760     1.0260     0.8520 hc         1 8E7       0.045700
     36 H23          0.0040    -1.1350     0.8340 hc         1 8E7       0.037700
     37 H24          0.0080    -1.1180    -0.9300 hc         1 8E7       0.037700
     38 H25          1.3070     1.0330    -0.9070 hc         1 8E7       0.038200
     39 H26          1.3030     1.0170     0.8560 hc         1 8E7       0.038200
     40 H27          2.5850    -1.1310    -0.9240 hc         1 8E7       0.037200
     41 H28          2.5800    -1.1470     0.8400 hc         1 8E7       0.037200
@<TRIPOS>BOND
     1     1     2 1   
     2     1    15 1   
     3     1    16 1   
     4     1    17 1   
     5     2     3 1   
     6     2    18 1   
     7     2    19 1   
     8     3     4 1   
     9     3    20 1   
    10     3    21 1   
    11     4     5 1   
    12     4    22 1   
    13     4    23 1   
    14     5    14 1   
    15     5    24 1   
    16     5    25 1   
    17     6     7 1   
    18     6    26 1   
    19     7     8 1   
    20     7    27 1   
    21     7    28 1   
    22     8     9 1   
    23     8    29 1   
    24     8    30 1   
    25     9    10 1   
    26     9    31 1   
    27    10    11 1   
    28    10    32 1   
    29    10    33 1   
    30    11    12 1   
    31    11    34 1   
    32    11    35 1   
    33    12    13 1   
    34    12    36 1   
    35    12    37 1   
    36    13    14 1   
    37    13    38 1   
    38    13    39 1   
    39    14    40 1   
    40    14    41 1   
@<TRIPOS>SUBSTRUCTURE
     1 8E7         1 TEMP              0 ****  ****    0 ROOT
