@<TRIPOS>MOLECULE
8E8
   59    63     1     0     0
SMALL
No Charge or Current Charge


@<TRIPOS>ATOM
      1 N1           1.0690     4.6940     0.2590 nb         1 8E8      -0.312000
      2 C2           2.3530     4.3370     0.0140 ca         1 8E8       0.198900
      3 N3           2.8080     3.0880    -0.2410 nb         1 8E8      -0.230000
      4 C4           1.8690     2.1210    -0.2800 ca         1 8E8       0.163500
      5 C5           0.5480     2.4070    -0.0890 ca         1 8E8      -0.383900
      6 C6           0.1630     3.7090     0.2130 ca         1 8E8       0.457900
      7 NAB         -1.0990     4.0670     0.5260 nv         1 8E8      -1.066900
      8 OAC          5.5870    -1.3520     1.9830 o          1 8E8      -0.595100
      9 CAD          7.0250    -2.6720     0.5690 c3         1 8E8      -0.152400
     10 CAE         -7.5300    -3.5600     0.0970 ca         1 8E8      -0.112000
     11 CAF         -8.0870    -2.4880     0.8160 ca         1 8E8      -0.099000
     12 CAG         -6.3700    -3.3640    -0.6730 ca         1 8E8      -0.099000
     13 CAI         -7.4800    -1.2200     0.7690 ca         1 8E8      -0.120500
     14 CAJ         -5.7630    -2.0960    -0.7210 ca         1 8E8      -0.120500
     15 CAK         -3.8710     1.4740    -0.8460 ca         1 8E8      -0.165000
     16 CAL         -3.5150    -0.3580     0.7110 ca         1 8E8      -0.165000
     17 CAM         -2.4870     1.7140    -0.8820 ca         1 8E8      -0.062500
     18 CAN         -2.1300    -0.1190     0.6750 ca         1 8E8      -0.062500
     19 CAO          4.7220    -1.1190    -2.4060 c6         1 8E8      -0.099400
     20 CAP          3.4080    -0.3290    -2.1720 c6         1 8E8      -0.087400
     21 CAQ          4.8110    -2.3410    -1.4600 c6         1 8E8       0.098000
     22 CAR          3.3770    -1.2120     0.2180 c6         1 8E8       0.080000
     23 NAU          0.7010     0.1320    -0.3600 nc         1 8E8      -0.528100
     24 CAY         -6.3140    -1.0240     0.0110 ca         1 8E8       0.097100
     25 CAZ         -4.3870     0.4370    -0.0540 ca         1 8E8       0.145100
     26 CBA         -1.6070     0.9370    -0.1000 ca         1 8E8      -0.136900
     27 CBB         -0.1500     1.1470    -0.1740 cd         1 8E8       0.443500
     28 CBE          3.2460     0.0490    -0.6750 c6         1 8E8       0.085300
     29 NBF          1.9560     0.7440    -0.4440 na         1 8E8      -0.018100
     30 NBG          4.6660    -1.9150    -0.0400 n          1 8E8      -0.413800
     31 H1           3.0970     5.1310     0.0470 h5         1 8E8       0.047100
     32 H2           8.3970    -1.7400     2.0010 hc         1 8E8       0.042033
     33 H3           7.6630    -3.2550     2.5810 hc         1 8E8       0.042033
     34 H4           8.9600    -3.3010     1.3670 hc         1 8E8       0.042033
     35 H5          -1.2380     4.9760     0.9600 hn         1 8E8       0.502500
     36 H6          -1.7630     3.3400     0.7700 hn         1 8E8       0.502500
     37 H7           7.4530    -2.2190    -0.3330 hc         1 8E8       0.054700
     38 H8           6.7590    -3.6720     0.2080 hc         1 8E8       0.054700
     39 H10         -8.9870    -2.6390     1.4080 ha         1 8E8       0.117500
     40 H11         -5.9440    -4.1930    -1.2350 ha         1 8E8       0.117500
     41 H12         -7.9110    -0.3890     1.3230 ha         1 8E8       0.129000
     42 H13         -4.8730    -1.9480    -1.3270 ha         1 8E8       0.129000
     43 H14         -4.5450     2.0840    -1.4430 ha         1 8E8       0.130500
     44 H15         -3.9060    -1.1600     1.3320 ha         1 8E8       0.130500
     45 H16         -2.0960     2.4990    -1.5280 ha         1 8E8       0.125000
     46 H17         -1.4610    -0.7480     1.2610 ha         1 8E8       0.125000
     47 H18          4.7800    -1.4510    -3.4510 hc         1 8E8       0.051700
     48 H19          5.5860    -0.4610    -2.2360 hc         1 8E8       0.051700
     49 H20          3.4010     0.5790    -2.7920 hc         1 8E8       0.060200
     50 H21          2.5520    -0.9370    -2.4970 hc         1 8E8       0.060200
     51 H22          4.0010    -3.0450    -1.7010 h1         1 8E8       0.051700
     52 H23          5.7530    -2.8720    -1.6410 h1         1 8E8       0.051700
     53 H24          3.2870    -0.9230     1.2750 h1         1 8E8       0.076700
     54 H25          2.5480    -1.9020     0.0040 h1         1 8E8       0.076700
     55 H26          4.0620     0.7320    -0.4020 h1         1 8E8       0.095700
     56 OAV         -5.7480     0.2300    -0.0290 os         1 8E8      -0.254200
     57 CAW          5.7210    -1.9180     0.9050 c          1 8E8       0.604100
     58 H9          -7.9990    -4.5410     0.1330 ha         1 8E8       0.117000
     59 CAA          8.0760    -2.7460     1.7020 c3         1 8E8      -0.077100
@<TRIPOS>BOND
     1     1     2 ar  
     2     1     6 ar  
     3     2     3 ar  
     4     2    31 1   
     5     3     4 ar  
     6     4     5 ar  
     7     4    29 1   
     8     5     6 ar  
     9     5    27 1   
    10     6     7 1   
    11     7    35 1   
    12     7    36 1   
    13     8    57 2   
    14     9    37 1   
    15     9    38 1   
    16     9    57 1   
    17     9    59 1   
    18    10    11 ar  
    19    10    12 ar  
    20    10    58 1   
    21    11    13 ar  
    22    11    39 1   
    23    12    14 ar  
    24    12    40 1   
    25    13    24 ar  
    26    13    41 1   
    27    14    24 ar  
    28    14    42 1   
    29    15    17 ar  
    30    15    25 ar  
    31    15    43 1   
    32    16    18 ar  
    33    16    25 ar  
    34    16    44 1   
    35    17    26 ar  
    36    17    45 1   
    37    18    26 ar  
    38    18    46 1   
    39    19    20 1   
    40    19    21 1   
    41    19    47 1   
    42    19    48 1   
    43    20    28 1   
    44    20    49 1   
    45    20    50 1   
    46    21    30 1   
    47    21    51 1   
    48    21    52 1   
    49    22    28 1   
    50    22    30 1   
    51    22    53 1   
    52    22    54 1   
    53    23    27 2   
    54    23    29 1   
    55    24    56 1   
    56    25    56 1   
    57    26    27 1   
    58    28    29 1   
    59    28    55 1   
    60    30    57 1   
    61    32    59 1   
    62    33    59 1   
    63    34    59 1   
@<TRIPOS>SUBSTRUCTURE
     1 8E8         1 TEMP              0 ****  ****    0 ROOT
