@<TRIPOS>MOLECULE
8E8
   59    63     1     0     0
SMALL
abcg2


@<TRIPOS>ATOM
      1 N1           1.2750     4.6080     0.6850 nb         1 8E8      -0.312000
      2 C2           2.5220     4.1910     0.4710 ca         1 8E8       0.198900
      3 N3           2.9340     3.0020     0.0850 nb         1 8E8      -0.230000
      4 C4           1.9170     2.1620    -0.1280 ca         1 8E8       0.163500
      5 C5           0.5580     2.4580     0.0090 ca         1 8E8      -0.383900
      6 C6           0.2650     3.7590     0.4820 ca         1 8E8       0.457900
      7 NAB         -0.9720     4.1880     0.7390 nv         1 8E8      -1.066900
      8 OAC          5.4540    -1.1490     1.9600 o          1 8E8      -0.595100
      9 CAD          6.7550    -2.5770     0.5540 c3         1 8E8      -0.152400
     10 CAE         -7.2530    -3.5830     0.3440 ca         1 8E8      -0.112000
     11 CAF         -7.4490    -2.5120     1.2050 ca         1 8E8      -0.099000
     12 CAG         -6.4850    -3.4150    -0.8020 ca         1 8E8      -0.099000
     13 CAI         -6.8770    -1.2760     0.9300 ca         1 8E8      -0.120500
     14 CAJ         -5.9150    -2.1830    -1.0910 ca         1 8E8      -0.120500
     15 CAK         -3.7970     1.5030    -1.0270 ca         1 8E8      -0.165000
     16 CAL         -3.3790    -0.5450     0.1730 ca         1 8E8      -0.165000
     17 CAM         -2.4470     1.8020    -0.9790 ca         1 8E8      -0.062500
     18 CAN         -2.0290    -0.2330     0.2100 ca         1 8E8      -0.062500
     19 CAO          4.4560    -1.3570    -2.3440 c6         1 8E8      -0.099400
     20 CAP          3.2390    -0.4550    -2.1600 c6         1 8E8      -0.087400
     21 CAQ          4.5020    -2.4370    -1.2710 c6         1 8E8       0.098000
     22 CAR          3.2760    -1.0500     0.2900 c6         1 8E8       0.080000
     23 NAU          0.7770     0.3200    -0.6130 nc         1 8E8      -0.528100
     24 CAY         -6.1170    -1.1220    -0.2190 ca         1 8E8       0.097100
     25 CAZ         -4.2670     0.3280    -0.4480 ca         1 8E8       0.145100
     26 CBA         -1.5410     0.9430    -0.3560 ca         1 8E8      -0.136900
     27 CBB         -0.1080     1.2450    -0.3210 cd         1 8E8       0.443500
     28 CBE          3.1880     0.0860    -0.7340 c6         1 8E8       0.085300
     29 NBF          1.9950     0.8710    -0.4990 na         1 8E8      -0.018100
     30 NBG          4.4700    -1.8330     0.0510 n          1 8E8      -0.413800
     31 H1           3.2950     4.9300     0.6520 h5         1 8E8       0.047100
     32 H2           8.1590    -1.4960     1.8130 hc         1 8E8       0.042033
     33 H3           7.4860    -2.9380     2.5690 hc         1 8E8       0.042033
     34 H4           8.6990    -3.0910     1.3040 hc         1 8E8       0.042033
     35 H5          -1.0990     5.0900     1.1650 hn         1 8E8       0.502500
     36 H6          -1.7570     3.5610     0.7420 hn         1 8E8       0.502500
     37 H7           7.1550    -2.2050    -0.3940 hc         1 8E8       0.054700
     38 H8           6.4770    -3.6180     0.3660 hc         1 8E8       0.054700
     39 H10         -8.0470    -2.6350     2.0980 ha         1 8E8       0.117500
     40 H11         -6.3310    -4.2450    -1.4790 ha         1 8E8       0.117500
     41 H12         -7.0260    -0.4370     1.5980 ha         1 8E8       0.129000
     42 H13         -5.3220    -2.0500    -1.9880 ha         1 8E8       0.129000
     43 H14         -4.4870     2.1740    -1.5210 ha         1 8E8       0.130500
     44 H15         -3.7220    -1.4590     0.6380 ha         1 8E8       0.130500
     45 H16         -2.0980     2.7050    -1.4650 ha         1 8E8       0.125000
     46 H17         -1.3480    -0.9130     0.7050 ha         1 8E8       0.125000
     47 H18          4.4290    -1.8240    -3.3290 hc         1 8E8       0.051700
     48 H19          5.3750    -0.7640    -2.2960 hc         1 8E8       0.051700
     49 H20          3.2640     0.3740    -2.8690 hc         1 8E8       0.060200
     50 H21          2.3280    -1.0250    -2.3610 hc         1 8E8       0.060200
     51 H22          3.6320    -3.0950    -1.3670 h1         1 8E8       0.051700
     52 H23          5.3810    -3.0630    -1.3890 h1         1 8E8       0.051700
     53 H24          3.2880    -0.6520     1.3020 h1         1 8E8       0.076700
     54 H25          2.4000    -1.6980     0.1930 h1         1 8E8       0.076700
     55 H26          4.0270     0.7670    -0.5730 h1         1 8E8       0.095700
     56 OAV         -5.6080     0.1200    -0.5080 os         1 8E8      -0.254200
     57 CAW          5.5120    -1.7860     0.9170 c          1 8E8       0.604100
     58 H9          -7.6980    -4.5450     0.5630 ha         1 8E8       0.117000
     59 CAA          7.8300    -2.5170     1.6250 c3         1 8E8      -0.077100
@<TRIPOS>BOND
     1     1     2 ar  
     2     1     6 ar  
     3     2     3 ar  
     4     2    31 1   
     5     3     4 ar  
     6     4     5 ar  
     7     4    29 1   
     8     5     6 ar  
     9     5    27 1   
    10     6     7 1   
    11     7    35 1   
    12     7    36 1   
    13     8    57 2   
    14     9    37 1   
    15     9    38 1   
    16     9    57 1   
    17     9    59 1   
    18    10    11 ar  
    19    10    12 ar  
    20    10    58 1   
    21    11    13 ar  
    22    11    39 1   
    23    12    14 ar  
    24    12    40 1   
    25    13    24 ar  
    26    13    41 1   
    27    14    24 ar  
    28    14    42 1   
    29    15    17 ar  
    30    15    25 ar  
    31    15    43 1   
    32    16    18 ar  
    33    16    25 ar  
    34    16    44 1   
    35    17    26 ar  
    36    17    45 1   
    37    18    26 ar  
    38    18    46 1   
    39    19    20 1   
    40    19    21 1   
    41    19    47 1   
    42    19    48 1   
    43    20    28 1   
    44    20    49 1   
    45    20    50 1   
    46    21    30 1   
    47    21    51 1   
    48    21    52 1   
    49    22    28 1   
    50    22    30 1   
    51    22    53 1   
    52    22    54 1   
    53    23    27 2   
    54    23    29 1   
    55    24    56 1   
    56    25    56 1   
    57    26    27 1   
    58    28    29 1   
    59    28    55 1   
    60    30    57 1   
    61    32    59 1   
    62    33    59 1   
    63    34    59 1   
@<TRIPOS>SUBSTRUCTURE
     1 8E8         1 TEMP              0 ****  ****    0 ROOT
