@<TRIPOS>MOLECULE
8E9
   44    47     1     0     0
SMALL
abcg2


@<TRIPOS>ATOM
      1 O16         -2.2870     0.4160    -1.1980 o          1 8E9      -0.518100
      2 C10         -1.4000     1.0160    -0.6210 c          1 8E9       0.584300
      3 C14         -1.6370     2.3980    -0.1560 ca         1 8E9      -0.124600
      4 C5          -2.9320     2.9110    -0.1600 ca         1 8E9      -0.076000
      5 C6          -3.1660     4.2030     0.2780 ca         1 8E9      -0.115000
      6 C7          -2.1060     4.9950     0.7090 ca         1 8E9      -0.114000
      7 C8          -0.8170     4.4930     0.7040 ca         1 8E9      -0.076000
      8 C13         -0.5770     3.1880     0.2780 ca         1 8E9      -0.115600
      9 C9           0.8100     2.6680     0.2710 c          1 8E9       0.606300
     10 O9           1.7210     3.4430     0.5520 o          1 8E9      -0.595100
     11 C11         -0.0710     0.4140    -0.3770 ca         1 8E9      -0.103600
     12 C12          1.0360     1.2600    -0.0520 ca         1 8E9      -0.282600
     13 C1           2.3600     0.7520    -0.0460 ca         1 8E9       0.462000
     14 N1           3.4360     1.5050     0.2390 nv         1 8E9      -0.763000
     15 C4           0.1310    -0.9480    -0.5910 ca         1 8E9       0.258000
     16 C3           1.4540    -1.4310    -0.5860 ca         1 8E9      -0.017000
     17 C2           2.5300    -0.6330    -0.3440 ca         1 8E9      -0.265500
     18 S2           4.1560    -1.4050    -0.2700 s6         1 8E9       1.258100
     19 OS2          4.5050    -1.3980     1.1570 o          1 8E9      -0.686200
     20 OS1          3.9860    -2.7490    -0.8360 o          1 8E9      -0.686200
     21 OS3          5.0270    -0.5350    -1.0870 o          1 8E9      -0.686200
     22 N4          -0.8550    -1.8910    -0.8270 nu         1 8E9      -0.811000
     23 C18         -2.0110    -2.1140    -0.0920 ca         1 8E9       0.356000
     24 C16         -2.2900    -1.4720     1.1140 ca         1 8E9      -0.169000
     25 C15         -3.4500    -1.7870     1.8040 ca         1 8E9      -0.074000
     26 C19         -4.3420    -2.7330     1.3200 ca         1 8E9      -0.168000
     27 C20         -4.0740    -3.3860     0.1180 ca         1 8E9      -0.046300
     28 C17         -5.0370    -4.3910    -0.4450 c3         1 8E9      -0.042800
     29 C21         -2.9130    -3.0670    -0.5740 ca         1 8E9      -0.176000
     30 H5          -3.7550     2.2960    -0.4970 ha         1 8E9       0.132000
     31 H6          -4.1740     4.5960     0.2840 ha         1 8E9       0.106000
     32 H7          -2.2900     6.0060     1.0470 ha         1 8E9       0.106000
     33 H8           0.0050     5.1130     1.0330 ha         1 8E9       0.133000
     34 H11N         4.3490     1.1700    -0.0230 hn         1 8E9       0.354500
     35 H12N         3.3050     2.4970     0.3440 hn         1 8E9       0.354500
     36 H3           1.6110    -2.4870    -0.7670 ha         1 8E9       0.140000
     37 H4          -0.5450    -2.6890    -1.3590 hn         1 8E9       0.326000
     38 H10         -1.6050    -0.7470     1.5330 ha         1 8E9       0.125000
     39 H2          -2.6970    -3.5680    -1.5120 ha         1 8E9       0.107000
     40 H9          -3.6540    -1.2890     2.7440 ha         1 8E9       0.101000
     41 H13         -5.2420    -2.9680     1.8760 ha         1 8E9       0.099000
     42 H7'1        -5.7790    -3.9050    -1.0810 hc         1 8E9       0.034367
     43 H7'2        -4.5280    -5.1380    -1.0540 hc         1 8E9       0.034367
     44 H7'3        -5.5800    -4.9110     0.3440 hc         1 8E9       0.034367
@<TRIPOS>BOND
     1     1     2 2   
     2     2     3 1   
     3     2    11 1   
     4     3     4 ar  
     5     3     8 ar  
     6     4     5 ar  
     7     4    30 1   
     8     5     6 ar  
     9     5    31 1   
    10     6     7 ar  
    11     6    32 1   
    12     7     8 ar  
    13     7    33 1   
    14     8     9 1   
    15     9    10 2   
    16     9    12 1   
    17    11    12 ar  
    18    11    15 ar  
    19    12    13 ar  
    20    13    14 1   
    21    13    17 ar  
    22    14    34 1   
    23    14    35 1   
    24    15    16 ar  
    25    15    22 1   
    26    16    17 ar  
    27    16    36 1   
    28    17    18 1   
    29    18    19 1   
    30    18    20 1   
    31    18    21 1   
    32    22    23 1   
    33    22    37 1   
    34    23    24 ar  
    35    23    29 ar  
    36    24    25 ar  
    37    24    38 1   
    38    25    26 ar  
    39    25    40 1   
    40    26    27 ar  
    41    26    41 1   
    42    27    28 1   
    43    27    29 ar  
    44    28    42 1   
    45    28    43 1   
    46    28    44 1   
    47    29    39 1   
@<TRIPOS>SUBSTRUCTURE
     1 8E9         1 TEMP              0 ****  ****    0 ROOT
