@<TRIPOS>MOLECULE
8E9
   44    47     1     0     0
SMALL
No Charge or Current Charge


@<TRIPOS>ATOM
      1 O16         -2.1910     0.4790    -1.5540 o          1 8E9      -0.518100
      2 C10         -1.3630     0.9920    -0.8080 c          1 8E9       0.584300
      3 C14         -1.6480     2.3280    -0.1840 ca         1 8E9      -0.124600
      4 C5          -2.9790     2.7550     0.0160 ca         1 8E9      -0.076000
      5 C6          -3.2450     4.0160     0.5720 ca         1 8E9      -0.115000
      6 C7          -2.1840     4.8650     0.9200 ca         1 8E9      -0.114000
      7 C8          -0.8570     4.4530     0.7140 ca         1 8E9      -0.076000
      8 C13         -0.5790     3.1800     0.1660 ca         1 8E9      -0.115600
      9 C9           0.8460     2.7510    -0.0780 c          1 8E9       0.606300
     10 O9           1.7290     3.5990    -0.1610 o          1 8E9      -0.595100
     11 C11          0.0120     0.3990    -0.5550 ca         1 8E9      -0.103600
     12 C12          1.1110     1.2650    -0.2540 ca         1 8E9      -0.282600
     13 C1           2.4180     0.7260    -0.1080 ca         1 8E9       0.462000
     14 N1           3.4630     1.5450     0.2080 nv         1 8E9      -0.763000
     15 C4           0.2320    -1.0000    -0.6350 ca         1 8E9       0.258000
     16 C3           1.5350    -1.4990    -0.5210 ca         1 8E9      -0.017000
     17 C2           2.6340    -0.6530    -0.2750 ca         1 8E9      -0.265500
     18 S2           4.3060    -1.3990    -0.0780 s6         1 8E9       1.258100
     19 OS2          4.4440    -1.4040     1.3850 o          1 8E9      -0.686200
     20 OS1          4.1460    -2.7170    -0.7070 o          1 8E9      -0.686200
     21 OS3          5.1690    -0.4460    -0.7920 o          1 8E9      -0.686200
     22 N4          -0.7930    -1.9460    -0.7790 nu         1 8E9      -0.811000
     23 C18         -1.9940    -2.1430    -0.0910 ca         1 8E9       0.356000
     24 C16         -2.2730    -1.4550     1.1040 ca         1 8E9      -0.169000
     25 C15         -3.4850    -1.6750     1.7800 ca         1 8E9      -0.074000
     26 C19         -4.4150    -2.5930     1.2680 ca         1 8E9      -0.168000
     27 C20         -4.1380    -3.3000     0.0830 ca         1 8E9      -0.046300
     28 C17         -5.1450    -4.2960    -0.4710 c3         1 8E9      -0.042800
     29 C21         -2.9230    -3.0700    -0.5890 ca         1 8E9      -0.176000
     30 H5          -3.8100     2.1070    -0.2560 ha         1 8E9       0.132000
     31 H6          -4.2720     4.3370     0.7280 ha         1 8E9       0.106000
     32 H7          -2.3880     5.8450     1.3470 ha         1 8E9       0.106000
     33 H8          -0.0450     5.1240     0.9840 ha         1 8E9       0.133000
     34 H11N         4.3970     1.2000     0.0050 hn         1 8E9       0.354500
     35 H12N         3.3050     2.5460     0.1420 hn         1 8E9       0.354500
     36 H3           1.6790    -2.5740    -0.5900 ha         1 8E9       0.140000
     37 H4          -0.5600    -2.7170    -1.3980 hn         1 8E9       0.326000
     38 H10         -1.5520    -0.7560     1.5160 ha         1 8E9       0.125000
     39 H2          -2.7030    -3.6070    -1.5070 ha         1 8E9       0.107000
     40 H9          -3.7000    -1.1380     2.7020 ha         1 8E9       0.101000
     41 H13         -5.3520    -2.7590     1.7950 ha         1 8E9       0.099000
     42 H7'1        -5.8320    -3.8070    -1.1720 hc         1 8E9       0.034367
     43 H7'2        -4.6460    -5.1130    -1.0050 hc         1 8E9       0.034367
     44 H7'3        -5.7450    -4.7450     0.3300 hc         1 8E9       0.034367
@<TRIPOS>BOND
     1     1     2 2   
     2     2     3 1   
     3     2    11 1   
     4     3     4 ar  
     5     3     8 ar  
     6     4     5 ar  
     7     4    30 1   
     8     5     6 ar  
     9     5    31 1   
    10     6     7 ar  
    11     6    32 1   
    12     7     8 ar  
    13     7    33 1   
    14     8     9 1   
    15     9    10 2   
    16     9    12 1   
    17    11    12 ar  
    18    11    15 ar  
    19    12    13 ar  
    20    13    14 1   
    21    13    17 ar  
    22    14    34 1   
    23    14    35 1   
    24    15    16 ar  
    25    15    22 1   
    26    16    17 ar  
    27    16    36 1   
    28    17    18 1   
    29    18    19 1   
    30    18    20 1   
    31    18    21 1   
    32    22    23 1   
    33    22    37 1   
    34    23    24 ar  
    35    23    29 ar  
    36    24    25 ar  
    37    24    38 1   
    38    25    26 ar  
    39    25    40 1   
    40    26    27 ar  
    41    26    41 1   
    42    27    28 1   
    43    27    29 ar  
    44    28    42 1   
    45    28    43 1   
    46    28    44 1   
    47    29    39 1   
@<TRIPOS>SUBSTRUCTURE
     1 8E9         1 TEMP              0 ****  ****    0 ROOT
