@<TRIPOS>MOLECULE
8EA
   55    55     1     0     0
SMALL
No Charge or Current Charge


@<TRIPOS>ATOM
      1 C10         -3.4300    -0.5120     0.1130 c3         1 8EA      -0.079400
      2 C13        -12.4370     0.4400    -0.0370 c3         1 8EA      -0.075400
      3 C15        -13.6900     0.1360     0.8080 c3         1 8EA      -0.089100
      4 C17          4.2750     1.6530     0.5520 c3         1 8EA       0.106900
      5 C20          6.6950     1.4350    -0.1960 ca         1 8EA      -0.082000
      6 C21          7.0530    -0.8640     1.3810 ca         1 8EA      -0.103500
      7 C22          7.9390     0.7800    -0.1780 ca         1 8EA      -0.103500
      8 Cl           9.6720    -1.1880     0.6300 cl         1 8EA      -0.203000
      9 S02          3.0790    -0.8120    -0.9290 ss         1 8EA      -0.216000
     10 S03          3.3460     1.2660    -0.9990 ss         1 8EA      -0.247000
     11 N04         -0.9670    -0.6770    -0.0450 n7         1 8EA      -0.865400
     12 C05         -7.3060     0.1160    -0.3850 c3         1 8EA      -0.074400
     13 C06         -5.9960    -0.3500     0.2880 c3         1 8EA      -0.074400
     14 C07         -8.5620    -0.1880     0.4620 c3         1 8EA      -0.074400
     15 C08         -4.7410    -0.0460    -0.5590 c3         1 8EA      -0.074400
     16 C09         -9.8710     0.2780    -0.2110 c3         1 8EA      -0.074400
     17 C11        -11.1270    -0.0260     0.6360 c3         1 8EA      -0.075400
     18 C12         -2.1800    -0.2060    -0.7370 c3         1 8EA       0.159800
     19 C14          0.2990    -0.4500    -0.7760 c3         1 8EA       0.161800
     20 C16          1.4960    -1.0340     0.0030 c3         1 8EA       0.047600
     21 C18          5.6230     0.9440     0.5760 ca         1 8EA      -0.088300
     22 C19          5.8080    -0.2090     1.3650 ca         1 8EA      -0.082000
     23 C23          8.1160    -0.3680     0.6100 ca         1 8EA       0.126000
     24 H1          -3.3330    -0.0220     1.0900 hc         1 8EA       0.045200
     25 H2          -3.4840    -1.5920     0.2970 hc         1 8EA       0.045200
     26 H3         -12.5390    -0.0490    -1.0130 hc         1 8EA       0.036700
     27 H4         -12.3860     1.5200    -0.2230 hc         1 8EA       0.036700
     28 H5         -13.7890    -0.9420     0.9820 hc         1 8EA       0.031367
     29 H6         -13.6340     0.6410     1.7790 hc         1 8EA       0.031367
     30 H7         -14.5920     0.4850     0.2910 hc         1 8EA       0.031367
     31 H8           4.4280     2.7380     0.6120 h1         1 8EA       0.078700
     32 H9           3.6700     1.3490     1.4150 h1         1 8EA       0.078700
     33 H10          6.5620     2.3230    -0.8110 ha         1 8EA       0.119500
     34 H11          7.1920    -1.7540     1.9890 ha         1 8EA       0.131000
     35 H12          8.7640     1.1610    -0.7750 ha         1 8EA       0.131000
     36 H13         -0.9100    -0.1940     0.8600 hn         1 8EA       0.404000
     37 H15         -7.2510     1.1960    -0.5710 hc         1 8EA       0.037200
     38 H16         -7.4030    -0.3730    -1.3620 hc         1 8EA       0.037200
     39 H17         -5.8990     0.1390     1.2650 hc         1 8EA       0.038200
     40 H18         -6.0520    -1.4300     0.4740 hc         1 8EA       0.038200
     41 H19         -8.6170    -1.2680     0.6480 hc         1 8EA       0.037200
     42 H20         -8.4640     0.3010     1.4390 hc         1 8EA       0.037200
     43 H21         -4.6850     1.0340    -0.7460 hc         1 8EA       0.038200
     44 H22         -4.8380    -0.5350    -1.5360 hc         1 8EA       0.038200
     45 H23         -9.8160     1.3580    -0.3970 hc         1 8EA       0.036700
     46 H24         -9.9690    -0.2110    -1.1880 hc         1 8EA       0.036700
     47 H25        -11.0300     0.4630     1.6130 hc         1 8EA       0.036700
     48 H26        -11.1830    -1.1060     0.8220 hc         1 8EA       0.036700
     49 H27         -2.2800    -0.7010    -1.7120 h1         1 8EA       0.030700
     50 H28         -2.1230     0.8770    -0.9140 h1         1 8EA       0.030700
     51 H29          0.2580    -0.9270    -1.7650 h1         1 8EA       0.044200
     52 H30          0.4610     0.6260    -0.9330 h1         1 8EA       0.044200
     53 H31          1.3340    -2.1070     0.1660 h1         1 8EA       0.078200
     54 H32          1.5840    -0.5430     0.9800 h1         1 8EA       0.078200
     55 H33          4.9870    -0.6020     1.9620 ha         1 8EA       0.119500
@<TRIPOS>BOND
     1     1    15 1   
     2     1    18 1   
     3     1    24 1   
     4     1    25 1   
     5     2     3 1   
     6     2    17 1   
     7     2    26 1   
     8     2    27 1   
     9     3    28 1   
    10     3    29 1   
    11     3    30 1   
    12     4    10 1   
    13     4    21 1   
    14     4    31 1   
    15     4    32 1   
    16     5     7 ar  
    17     5    21 ar  
    18     5    33 1   
    19     6    22 ar  
    20     6    23 ar  
    21     6    34 1   
    22     7    23 ar  
    23     7    35 1   
    24     8    23 1   
    25     9    10 1   
    26     9    20 1   
    27    11    18 1   
    28    11    19 1   
    29    11    36 1   
    30    12    13 1   
    31    12    14 1   
    32    12    37 1   
    33    12    38 1   
    34    13    15 1   
    35    13    39 1   
    36    13    40 1   
    37    14    16 1   
    38    14    41 1   
    39    14    42 1   
    40    15    43 1   
    41    15    44 1   
    42    16    17 1   
    43    16    45 1   
    44    16    46 1   
    45    17    47 1   
    46    17    48 1   
    47    18    49 1   
    48    18    50 1   
    49    19    20 1   
    50    19    51 1   
    51    19    52 1   
    52    20    53 1   
    53    20    54 1   
    54    21    22 ar  
    55    22    55 1   
@<TRIPOS>SUBSTRUCTURE
     1 8EA         1 TEMP              0 ****  ****    0 ROOT
