@<TRIPOS>MOLECULE
8EA
   55    55     1     0     0
SMALL
abcg2


@<TRIPOS>ATOM
      1 C10         -3.4190    -0.2140     0.2080 c3         1 8EA      -0.079400
      2 C13        -12.3540     0.1100    -0.1200 c3         1 8EA      -0.075400
      3 C15        -13.5720     0.0180     0.7900 c3         1 8EA      -0.089100
      4 C17          4.2880     1.4900     0.8090 c3         1 8EA       0.106900
      5 C20          6.6940     1.3700     0.1070 ca         1 8EA      -0.082000
      6 C21          6.8990    -1.2440     1.0170 ca         1 8EA      -0.103500
      7 C22          7.8940     0.6920    -0.0290 ca         1 8EA      -0.103500
      8 CL           9.4810    -1.4740     0.2590 cl         1 8EA      -0.203000
      9 S02          2.9570    -0.4650    -1.0810 ss         1 8EA      -0.216000
     10 S03          3.3540     1.5200    -0.7670 ss         1 8EA      -0.247000
     11 N04         -0.9720    -0.3430     0.0100 n7         1 8EA      -0.865400
     12 C05         -7.2710     0.0360    -0.3940 c3         1 8EA      -0.074400
     13 C06         -5.9580    -0.1330     0.3600 c3         1 8EA      -0.074400
     14 C07         -8.4990    -0.0740     0.5010 c3         1 8EA      -0.074400
     15 C08         -4.7320    -0.0090    -0.5370 c3         1 8EA      -0.074400
     16 C09         -9.8110     0.0760    -0.2570 c3         1 8EA      -0.074400
     17 C11        -11.0390    -0.0240     0.6390 c3         1 8EA      -0.075400
     18 C12         -2.2080    -0.0540    -0.6960 c3         1 8EA       0.159800
     19 C14          0.2070    -0.1310    -0.8060 c3         1 8EA       0.161800
     20 C16          1.4300    -0.7220    -0.1280 c3         1 8EA       0.047600
     21 C18          5.5870     0.7620     0.6950 ca         1 8EA      -0.088300
     22 C19          5.7050    -0.5480     1.1460 ca         1 8EA      -0.082000
     23 C23          7.9830    -0.6160     0.4270 ca         1 8EA       0.126000
     24 H1          -3.3540     0.5020     1.0350 hc         1 8EA       0.045200
     25 H2          -3.4020    -1.2110     0.6590 hc         1 8EA       0.045200
     26 H3         -12.4100    -0.6680    -0.8870 hc         1 8EA       0.036700
     27 H4         -12.3670     1.0650    -0.6550 hc         1 8EA       0.036700
     28 H5         -13.5930    -0.9350     1.3220 hc         1 8EA       0.031367
     29 H6         -13.5640     0.8120     1.5400 hc         1 8EA       0.031367
     30 H7         -14.5030     0.1020     0.2280 hc         1 8EA       0.031367
     31 H8           4.4360     2.5460     1.0460 h1         1 8EA       0.078700
     32 H9           3.6510     1.0640     1.5840 h1         1 8EA       0.078700
     33 H10          6.6220     2.3900    -0.2510 ha         1 8EA       0.119500
     34 H11          6.9790    -2.2620     1.3730 ha         1 8EA       0.131000
     35 H12          8.7480     1.1760    -0.4830 ha         1 8EA       0.131000
     36 H13         -0.9150     0.2540     0.8270 hn         1 8EA       0.404000
     37 H15         -7.2770     1.0080    -0.9000 hc         1 8EA       0.037200
     38 H16         -7.3310    -0.7180    -1.1860 hc         1 8EA       0.037200
     39 H17         -5.8990     0.6140     1.1600 hc         1 8EA       0.038200
     40 H18         -5.9480    -1.1090     0.8570 hc         1 8EA       0.038200
     41 H19         -8.4870    -1.0420     1.0170 hc         1 8EA       0.037200
     42 H20         -8.4440     0.6870     1.2870 hc         1 8EA       0.037200
     43 H21         -4.7330     0.9760    -1.0160 hc         1 8EA       0.038200
     44 H22         -4.8030    -0.7420    -1.3490 hc         1 8EA       0.038200
     45 H23         -9.8210     1.0400    -0.7790 hc         1 8EA       0.036700
     46 H24         -9.8680    -0.6910    -1.0380 hc         1 8EA       0.036700
     47 H25        -10.9880     0.7490     1.4130 hc         1 8EA       0.036700
     48 H26        -11.0250    -0.9840     1.1690 hc         1 8EA       0.036700
     49 H27         -2.2880    -0.7530    -1.5350 h1         1 8EA       0.030700
     50 H28         -2.2160     0.9560    -1.1380 h1         1 8EA       0.030700
     51 H29          0.0610    -0.6360    -1.7640 h1         1 8EA       0.044200
     52 H30          0.3870     0.9300    -1.0360 h1         1 8EA       0.044200
     53 H31          1.3320    -1.8060    -0.0370 h1         1 8EA       0.078200
     54 H32          1.5750    -0.3230     0.8780 h1         1 8EA       0.078200
     55 H33          4.8590    -1.0380     1.6110 ha         1 8EA       0.119500
@<TRIPOS>BOND
     1     1    15 1   
     2     1    18 1   
     3     1    24 1   
     4     1    25 1   
     5     2     3 1   
     6     2    17 1   
     7     2    26 1   
     8     2    27 1   
     9     3    28 1   
    10     3    29 1   
    11     3    30 1   
    12     4    10 1   
    13     4    21 1   
    14     4    31 1   
    15     4    32 1   
    16     5     7 ar  
    17     5    21 ar  
    18     5    33 1   
    19     6    22 ar  
    20     6    23 ar  
    21     6    34 1   
    22     7    23 ar  
    23     7    35 1   
    24     8    23 1   
    25     9    10 1   
    26     9    20 1   
    27    11    18 1   
    28    11    19 1   
    29    11    36 1   
    30    12    13 1   
    31    12    14 1   
    32    12    37 1   
    33    12    38 1   
    34    13    15 1   
    35    13    39 1   
    36    13    40 1   
    37    14    16 1   
    38    14    41 1   
    39    14    42 1   
    40    15    43 1   
    41    15    44 1   
    42    16    17 1   
    43    16    45 1   
    44    16    46 1   
    45    17    47 1   
    46    17    48 1   
    47    18    49 1   
    48    18    50 1   
    49    19    20 1   
    50    19    51 1   
    51    19    52 1   
    52    20    53 1   
    53    20    54 1   
    54    21    22 ar  
    55    22    55 1   
@<TRIPOS>SUBSTRUCTURE
     1 8EA         1 TEMP              0 ****  ****    0 ROOT
