@<TRIPOS>MOLECULE
8EC
   35    38     1     0     0
SMALL
No Charge or Current Charge


@<TRIPOS>ATOM
      1 C02          3.5780    -2.3400    -0.0260 c          1 8EC       0.620700
      2 C04          3.4210    -0.8260    -0.0110 ca         1 8EC      -0.065600
      3 C05          4.5580     0.0370    -0.0020 ca         1 8EC      -0.152000
      4 C06          4.4110     1.4420     0.0120 ca         1 8EC       0.177000
      5 C08          3.1360     2.0290     0.0170 ca         1 8EC      -0.144000
      6 C09          2.0380     1.1670     0.0080 ca         1 8EC      -0.065200
      7 C11          0.0280     0.2580    -0.0010 cc         1 8EC       0.508400
      8 C12         -1.4040     0.2230    -0.0020 cc         1 8EC      -0.255900
      9 C13         -2.1270    -0.9460    -0.0140 cd         1 8EC      -0.055000
     10 C14         -3.5320    -0.7230    -0.0130 cd         1 8EC      -0.097300
     11 C15         -4.5730    -1.8220    -0.0380 c6         1 8EC      -0.008100
     12 C16         -5.9800    -1.2560     0.2930 c6         1 8EC       0.157800
     13 C18         -5.3010     1.1090     0.0270 c6         1 8EC       0.232100
     14 C19         -3.8760     0.6080    -0.0080 cc         1 8EC      -0.192300
     15 C22          2.1490    -0.2000    -0.0050 ca         1 8EC       0.098400
     16 F07          5.5080     2.2290     0.0200 f          1 8EC      -0.177000
     17 N01          4.8350    -2.8460    -0.0300 nt         1 8EC      -0.610000
     18 N10          0.7120     1.4660     0.0110 na         1 8EC      -0.312600
     19 N17         -6.2280     0.0320    -0.4070 n7         1 8EC      -0.854400
     20 N21          0.8800    -0.7830    -0.0110 nd         1 8EC      -0.538100
     21 O03          2.6460    -3.1280    -0.0340 o          1 8EC      -0.567100
     22 S20         -2.4500     1.6400     0.0110 ss         1 8EC       0.184000
     23 H1           5.5670    -0.3630    -0.0060 ha         1 8EC       0.134000
     24 H2           3.0160     3.1100     0.0280 ha         1 8EC       0.138000
     25 H3          -1.6790    -1.9360    -0.0250 ha         1 8EC       0.161000
     26 H4          -4.5960    -2.2830    -1.0350 hc         1 8EC       0.060200
     27 H5          -4.3200    -2.6220     0.6700 hc         1 8EC       0.060200
     28 H6          -6.7470    -1.9910     0.0060 h1         1 8EC       0.034700
     29 H7          -6.0640    -1.0980     1.3790 h1         1 8EC       0.034700
     30 H8          -5.5590     1.4220     1.0500 h1         1 8EC       0.043200
     31 H9          -5.4230     1.9850    -0.6270 h1         1 8EC       0.043200
     32 H10          4.9590    -3.8470    -0.0400 hn         1 8EC       0.314000
     33 H11          5.6330    -2.2310    -0.0240 hn         1 8EC       0.314000
     34 H12          0.2910     2.3840     0.0200 hn         1 8EC       0.362000
     35 H13         -7.1910     0.3390    -0.2190 hn         1 8EC       0.414000
@<TRIPOS>BOND
     1     1     2 1   
     2     1    17 1   
     3     1    21 2   
     4     2     3 ar  
     5     2    15 ar  
     6     3     4 ar  
     7     3    23 1   
     8     4     5 ar  
     9     4    16 1   
    10     5     6 ar  
    11     5    24 1   
    12     6    15 ar  
    13     6    18 1   
    14     7     8 1   
    15     7    18 1   
    16     7    20 2   
    17     8     9 2   
    18     8    22 1   
    19     9    10 1   
    20     9    25 1   
    21    10    11 1   
    22    10    14 2   
    23    11    12 1   
    24    11    26 1   
    25    11    27 1   
    26    12    19 1   
    27    12    28 1   
    28    12    29 1   
    29    13    14 1   
    30    13    19 1   
    31    13    30 1   
    32    13    31 1   
    33    14    22 1   
    34    15    20 1   
    35    17    32 1   
    36    17    33 1   
    37    18    34 1   
    38    19    35 1   
@<TRIPOS>SUBSTRUCTURE
     1 8EC         1 TEMP              0 ****  ****    0 ROOT
