@<TRIPOS>MOLECULE
8EC
   35    38     1     0     0
SMALL
abcg2


@<TRIPOS>ATOM
      1 C02          3.5360    -2.2520    -0.3830 c          1 8EC       0.620700
      2 C04          3.3990    -0.7750    -0.2010 ca         1 8EC      -0.065600
      3 C05          4.5160     0.0470    -0.1280 ca         1 8EC      -0.152000
      4 C06          4.3710     1.4270    -0.0100 ca         1 8EC       0.177000
      5 C08          3.1520     2.0640     0.0510 ca         1 8EC      -0.144000
      6 C09          2.0470     1.2280    -0.0170 ca         1 8EC      -0.065200
      7 C11          0.0610     0.2920    -0.0680 cc         1 8EC       0.508400
      8 C12         -1.3760     0.1650    -0.0490 cc         1 8EC      -0.255900
      9 C13         -2.0890    -1.0020    -0.0460 cd         1 8EC      -0.055000
     10 C14         -3.4910    -0.7950    -0.0210 cd         1 8EC      -0.097300
     11 C15         -4.5540    -1.8510     0.0080 c6         1 8EC      -0.008100
     12 C16         -5.8860    -1.2300     0.4140 c6         1 8EC       0.157800
     13 C18         -5.2200     1.0510     0.0270 c6         1 8EC       0.232100
     14 C19         -3.8200     0.5300    -0.0130 cc         1 8EC      -0.192300
     15 C22          2.1380    -0.1700    -0.1530 ca         1 8EC       0.098400
     16 F07          5.4870     2.1720     0.0430 f          1 8EC      -0.177000
     17 N01          4.5350    -2.8200     0.3090 nt         1 8EC      -0.610000
     18 N10          0.7090     1.4880     0.0280 na         1 8EC      -0.312600
     19 N17         -6.1150    -0.0230    -0.3640 n7         1 8EC      -0.854400
     20 N21          0.8850    -0.7180    -0.1780 nd         1 8EC      -0.538100
     21 O03          2.7930    -2.8730    -1.1260 o          1 8EC      -0.567100
     22 S20         -2.4300     1.5350    -0.0310 ss         1 8EC       0.184000
     23 H1           5.5160    -0.3670    -0.1860 ha         1 8EC       0.134000
     24 H2           3.0720     3.1390     0.1450 ha         1 8EC       0.138000
     25 H3          -1.6200    -1.9770    -0.0540 ha         1 8EC       0.161000
     26 H4          -4.6410    -2.3170    -0.9780 hc         1 8EC       0.060200
     27 H5          -4.2830    -2.6450     0.7070 hc         1 8EC       0.060200
     28 H6          -6.6970    -1.9320     0.2190 h1         1 8EC       0.034700
     29 H7          -5.8780    -1.0370     1.4980 h1         1 8EC       0.034700
     30 H8          -5.4260     1.4400     1.0360 h1         1 8EC       0.043200
     31 H9          -5.3420     1.8900    -0.6630 h1         1 8EC       0.043200
     32 H10          4.6970    -3.8120     0.2360 hn         1 8EC       0.314000
     33 H11          5.0490    -2.3200     1.0140 hn         1 8EC       0.314000
     34 H12          0.2930     2.3990     0.1490 hn         1 8EC       0.362000
     35 H13         -7.0700     0.2880    -0.2410 hn         1 8EC       0.414000
@<TRIPOS>BOND
     1     1     2 1   
     2     1    17 1   
     3     1    21 2   
     4     2     3 ar  
     5     2    15 ar  
     6     3     4 ar  
     7     3    23 1   
     8     4     5 ar  
     9     4    16 1   
    10     5     6 ar  
    11     5    24 1   
    12     6    15 ar  
    13     6    18 1   
    14     7     8 1   
    15     7    18 1   
    16     7    20 2   
    17     8     9 2   
    18     8    22 1   
    19     9    10 1   
    20     9    25 1   
    21    10    11 1   
    22    10    14 2   
    23    11    12 1   
    24    11    26 1   
    25    11    27 1   
    26    12    19 1   
    27    12    28 1   
    28    12    29 1   
    29    13    14 1   
    30    13    19 1   
    31    13    30 1   
    32    13    31 1   
    33    14    22 1   
    34    15    20 1   
    35    17    32 1   
    36    17    33 1   
    37    18    34 1   
    38    19    35 1   
@<TRIPOS>SUBSTRUCTURE
     1 8EC         1 TEMP              0 ****  ****    0 ROOT
