@<TRIPOS>MOLECULE
8EH
   64    67     1     0     0
SMALL
abcg2


@<TRIPOS>ATOM
      1 C10        137.5130   118.9460   173.1370 ca         1 8EH      -0.083200
      2 C12        135.3630   119.7520   174.1330 cc         1 8EH       0.615400
      3 C17        136.5510   117.6440   176.4070 c3         1 8EH      -0.342700
      4 C18        138.0590   117.8300   176.4870 c3         1 8EH      -0.065100
      5 C19        136.0100   116.5420   177.3460 c3         1 8EH       0.165000
      6 C21        136.5360   115.2000   176.8750 ca         1 8EH       0.093300
      7 C23        137.9050   113.4240   177.2410 ca         1 8EH       0.111400
      8 C24        137.5060   112.8350   176.0480 ca         1 8EH      -0.182300
      9 C25        138.0290   111.5090   175.5860 c3         1 8EH      -0.038800
     10 C26        136.5720   113.5630   175.3110 ca         1 8EH       0.111400
     11 C30        135.2210   118.9890   172.0990 cc         1 8EH       0.359500
     12 C31        135.5640   118.4510   170.7720 ca         1 8EH       0.333000
     13 C32        136.7180   118.8550   170.1050 ca         1 8EH      -0.156000
     14 C01        137.3620   115.3880   172.3400 c3         1 8EH       0.153900
     15 C03        137.9510   117.6280   172.9260 ca         1 8EH       0.146600
     16 C04        139.3180   117.3630   172.9110 ca         1 8EH      -0.176500
     17 C05        140.2240   118.3940   173.1360 ca         1 8EH      -0.050000
     18 C06        139.7960   119.6910   173.3810 ca         1 8EH      -0.176500
     19 C07        138.4350   119.9630   173.3790 ca         1 8EH       0.146600
     20 C09        137.8410   122.1280   172.5860 c3         1 8EH       0.153900
     21 C33        136.9810   118.2970   168.8630 ca         1 8EH      -0.074000
     22 C34        136.0920   117.3740   168.3350 ca         1 8EH      -0.160000
     23 C35        134.9480   117.0360   169.0620 ca         1 8EH       0.356300
     24 C36        133.9460   116.0520   168.5340 c3         1 8EH      -0.144400
     25 N11        136.1220   119.2370   173.1070 na         1 8EH      -0.289800
     26 N22        137.4240   114.5990   177.6570 nb         1 8EH      -0.170000
     27 N27        136.0860   114.7360   175.7120 nb         1 8EH      -0.170000
     28 N28        134.1060   119.8150   173.7790 nd         1 8EH      -0.314000
     29 N29        134.0140   119.3200   172.4990 nd         1 8EH      -0.312000
     30 N37        134.6970   117.5690   170.2620 nb         1 8EH      -0.634000
     31 O02        136.9840   116.7030   172.7590 os         1 8EH      -0.353100
     32 O08        137.9730   121.2170   173.6940 os         1 8EH      -0.353100
     33 O15        134.2770   118.9110   176.8530 o          1 8EH      -0.507000
     34 O16        136.3530   119.9440   177.7740 o          1 8EH      -0.507000
     35 O20        136.3520   116.7820   178.6930 oh         1 8EH      -0.652000
     36 S14        135.6840   119.2000   176.7370 s6         1 8EH       1.231100
     37 H1         136.2320   117.3810   175.3960 h1         1 8EH       0.111700
     38 H2         138.5490   116.9420   176.0890 hc         1 8EH       0.047367
     39 H3         138.3940   118.6830   175.9020 hc         1 8EH       0.047367
     40 H4         138.3700   117.9730   177.5200 hc         1 8EH       0.047367
     41 H5         134.9220   116.5250   177.2570 h1         1 8EH       0.111700
     42 H6         138.6360   112.9390   177.8810 h4         1 8EH       0.027100
     43 H7         138.2290   111.5220   174.5130 hc         1 8EH       0.050033
     44 H8         138.9480   111.2480   176.1100 hc         1 8EH       0.050033
     45 H9         137.2970   110.7200   175.7750 hc         1 8EH       0.050033
     46 H10        136.2060   113.1820   174.3620 h4         1 8EH       0.027100
     47 H11        137.3850   119.5860   170.5360 ha         1 8EH       0.124000
     48 H12        136.4310   114.8420   172.2210 h1         1 8EH       0.047867
     49 H13        137.8960   115.4310   171.3890 h1         1 8EH       0.047867
     50 H14        137.9820   114.9010   173.0940 h1         1 8EH       0.047867
     51 H15        139.6770   116.3590   172.7440 ha         1 8EH       0.133000
     52 H16        141.2830   118.1720   173.1340 ha         1 8EH       0.124000
     53 H17        140.4950   120.4910   173.5800 ha         1 8EH       0.133000
     54 H18        137.5030   123.0710   173.0080 h1         1 8EH       0.047867
     55 H19        138.8050   122.2610   172.0930 h1         1 8EH       0.047867
     56 H20        137.1050   121.7550   171.8710 h1         1 8EH       0.047867
     57 H21        137.8680   118.5840   168.3130 ha         1 8EH       0.120000
     58 H22        136.2730   116.9180   167.3710 ha         1 8EH       0.124000
     59 H23        133.8260   115.2220   169.2340 hc         1 8EH       0.054700
     60 H24        132.9690   116.5300   168.4240 hc         1 8EH       0.054700
     61 H25        134.2510   115.6550   167.5670 hc         1 8EH       0.054700
     62 H26        136.7510   120.6600   175.3320 hn         1 8EH       0.525000
     63 H27        137.0440   116.1350   178.9190 ho         1 8EH       0.481000
     64 N13        135.8870   120.1250   175.3630 nu         1 8EH      -0.852000
@<TRIPOS>BOND
     1     1    15 ar  
     2     1    19 ar  
     3     1    25 1   
     4     2    25 1   
     5     2    28 2   
     6     2    64 1   
     7     3     4 1   
     8     3     5 1   
     9     3    36 1   
    10     3    37 1   
    11     4    38 1   
    12     4    39 1   
    13     4    40 1   
    14     5     6 1   
    15     5    35 1   
    16     5    41 1   
    17     6    26 ar  
    18     6    27 ar  
    19     7     8 ar  
    20     7    26 ar  
    21     7    42 1   
    22     8     9 1   
    23     8    10 ar  
    24     9    43 1   
    25     9    44 1   
    26     9    45 1   
    27    10    27 ar  
    28    10    46 1   
    29    11    12 1   
    30    11    25 1   
    31    11    29 2   
    32    12    13 ar  
    33    12    30 ar  
    34    13    21 ar  
    35    13    47 1   
    36    14    31 1   
    37    14    48 1   
    38    14    49 1   
    39    14    50 1   
    40    15    16 ar  
    41    15    31 1   
    42    16    17 ar  
    43    16    51 1   
    44    17    18 ar  
    45    17    52 1   
    46    18    19 ar  
    47    18    53 1   
    48    19    32 1   
    49    20    32 1   
    50    20    54 1   
    51    20    55 1   
    52    20    56 1   
    53    21    22 ar  
    54    21    57 1   
    55    22    23 ar  
    56    22    58 1   
    57    23    24 1   
    58    23    30 ar  
    59    24    59 1   
    60    24    60 1   
    61    24    61 1   
    62    28    29 1   
    63    33    36 2   
    64    34    36 2   
    65    35    63 1   
    66    36    64 1   
    67    62    64 1   
@<TRIPOS>SUBSTRUCTURE
     1 8EH         1 TEMP              0 ****  ****    0 ROOT
