@<TRIPOS>MOLECULE
8EH
   64    67     1     0     0
SMALL
No Charge or Current Charge


@<TRIPOS>ATOM
      1 C10        137.5550   119.1020   173.1780 ca         1 8EH      -0.083200
      2 C12        135.4350   119.7080   174.2740 cc         1 8EH       0.615400
      3 C17        136.6540   117.7220   176.4670 c3         1 8EH      -0.342700
      4 C18        138.2060   117.8870   176.4700 c3         1 8EH      -0.065100
      5 C19        136.1190   116.5670   177.3530 c3         1 8EH       0.165000
      6 C21        136.4560   115.1900   176.7550 ca         1 8EH       0.093300
      7 C23        137.9180   113.4220   176.5400 ca         1 8EH       0.111400
      8 C24        137.0280   112.7950   175.6470 ca         1 8EH      -0.182300
      9 C25        137.3550   111.4530   175.0120 c3         1 8EH      -0.038800
     10 C26        135.8260   113.4680   175.3630 ca         1 8EH       0.111400
     11 C30        135.2760   118.9320   172.2160 cc         1 8EH       0.359500
     12 C31        135.6180   118.3860   170.8820 ca         1 8EH       0.333000
     13 C32        136.6630   118.9640   170.1260 ca         1 8EH      -0.156000
     14 C01        137.5720   115.3580   172.9110 c3         1 8EH       0.153900
     15 C03        138.0590   117.7810   173.0610 ca         1 8EH       0.146600
     16 C04        139.4530   117.5570   173.0730 ca         1 8EH      -0.176500
     17 C05        140.3430   118.6310   173.2190 ca         1 8EH      -0.050000
     18 C06        139.8480   119.9350   173.3530 ca         1 8EH      -0.176500
     19 C07        138.4680   120.1760   173.3210 ca         1 8EH       0.146600
     20 C09        137.4100   122.1770   172.4120 c3         1 8EH       0.153900
     21 C33        136.9960   118.4290   168.8720 ca         1 8EH      -0.074000
     22 C34        136.2690   117.3230   168.4100 ca         1 8EH      -0.160000
     23 C35        135.2400   116.7980   169.2110 ca         1 8EH       0.356300
     24 C36        134.4210   115.6060   168.7560 c3         1 8EH      -0.144400
     25 N11        136.1670   119.3310   173.1900 na         1 8EH      -0.289800
     26 N22        137.6360   114.6170   177.0980 nb         1 8EH      -0.170000
     27 N27        135.5370   114.6640   175.9130 nb         1 8EH      -0.170000
     28 N28        134.1530   119.6490   173.9700 nd         1 8EH      -0.314000
     29 N29        134.0480   119.1510   172.6810 nd         1 8EH      -0.312000
     30 N37        134.9160   117.3150   170.4160 nb         1 8EH      -0.634000
     31 O02        137.1590   116.7340   172.9740 os         1 8EH      -0.353100
     32 O08        138.0400   121.4710   173.4960 os         1 8EH      -0.353100
     33 O15        134.3570   119.0320   176.9660 o          1 8EH      -0.507000
     34 O16        136.5270   120.0340   177.8280 o          1 8EH      -0.507000
     35 O20        136.6300   116.7050   178.6850 oh         1 8EH      -0.652000
     36 S14        135.7910   119.2820   176.8110 s6         1 8EH       1.231100
     37 H1         136.3430   117.4850   175.4450 h1         1 8EH       0.111700
     38 H2         138.6980   116.9810   176.0970 hc         1 8EH       0.047367
     39 H3         138.5210   118.7150   175.8260 hc         1 8EH       0.047367
     40 H4         138.5890   118.0940   177.4770 hc         1 8EH       0.047367
     41 H5         135.0200   116.6270   177.3810 h1         1 8EH       0.111700
     42 H6         138.8690   112.9670   176.8110 h4         1 8EH       0.027100
     43 H7         137.8690   111.5890   174.0530 hc         1 8EH       0.050033
     44 H8         138.0070   110.8520   175.6580 hc         1 8EH       0.050033
     45 H9         136.4460   110.8680   174.8240 hc         1 8EH       0.050033
     46 H10        135.0860   113.0500   174.6820 h4         1 8EH       0.027100
     47 H11        137.2090   119.8210   170.5090 ha         1 8EH       0.124000
     48 H12        136.6950   114.7030   172.8440 h1         1 8EH       0.047867
     49 H13        138.1960   115.1780   172.0270 h1         1 8EH       0.047867
     50 H14        138.1370   115.0790   173.8090 h1         1 8EH       0.047867
     51 H15        139.8650   116.5560   172.9850 ha         1 8EH       0.133000
     52 H16        141.4170   118.4510   173.2370 ha         1 8EH       0.124000
     53 H17        140.5370   120.7670   173.4800 ha         1 8EH       0.133000
     54 H18        137.1860   123.2090   172.7100 h1         1 8EH       0.047867
     55 H19        138.0720   122.2110   171.5370 h1         1 8EH       0.047867
     56 H20        136.4680   121.7020   172.1150 h1         1 8EH       0.047867
     57 H21        137.7980   118.8600   168.2760 ha         1 8EH       0.120000
     58 H22        136.4950   116.8790   167.4450 ha         1 8EH       0.124000
     59 H23        134.2410   114.9090   169.5830 hc         1 8EH       0.054700
     60 H24        133.4480   115.9290   168.3690 hc         1 8EH       0.054700
     61 H25        134.9320   115.0500   167.9620 hc         1 8EH       0.054700
     62 H26        136.9450   120.3260   175.3640 hn         1 8EH       0.525000
     63 H27        137.5340   116.3220   178.6760 ho         1 8EH       0.481000
     64 N13        135.9530   120.1700   175.4330 nu         1 8EH      -0.852000
@<TRIPOS>BOND
     1     1    15 ar  
     2     1    19 ar  
     3     1    25 1   
     4     2    25 1   
     5     2    28 2   
     6     2    64 1   
     7     3     4 1   
     8     3     5 1   
     9     3    36 1   
    10     3    37 1   
    11     4    38 1   
    12     4    39 1   
    13     4    40 1   
    14     5     6 1   
    15     5    35 1   
    16     5    41 1   
    17     6    26 ar  
    18     6    27 ar  
    19     7     8 ar  
    20     7    26 ar  
    21     7    42 1   
    22     8     9 1   
    23     8    10 ar  
    24     9    43 1   
    25     9    44 1   
    26     9    45 1   
    27    10    27 ar  
    28    10    46 1   
    29    11    12 1   
    30    11    25 1   
    31    11    29 2   
    32    12    13 ar  
    33    12    30 ar  
    34    13    21 ar  
    35    13    47 1   
    36    14    31 1   
    37    14    48 1   
    38    14    49 1   
    39    14    50 1   
    40    15    16 ar  
    41    15    31 1   
    42    16    17 ar  
    43    16    51 1   
    44    17    18 ar  
    45    17    52 1   
    46    18    19 ar  
    47    18    53 1   
    48    19    32 1   
    49    20    32 1   
    50    20    54 1   
    51    20    55 1   
    52    20    56 1   
    53    21    22 ar  
    54    21    57 1   
    55    22    23 ar  
    56    22    58 1   
    57    23    24 1   
    58    23    30 ar  
    59    24    59 1   
    60    24    60 1   
    61    24    61 1   
    62    28    29 1   
    63    33    36 2   
    64    34    36 2   
    65    35    63 1   
    66    36    64 1   
    67    62    64 1   
@<TRIPOS>SUBSTRUCTURE
     1 8EH         1 TEMP              0 ****  ****    0 ROOT
