@<TRIPOS>MOLECULE
8EJ
   18    18     1     0     0
SMALL
bcc


@<TRIPOS>ATOM
      1 N1          -1.4400     1.1760     0.1180 nb         1 8EJ      -0.683000
      2 C4          -0.0550    -1.2170     0.0100 ca         1 8EJ      -0.036000
      3 C5           0.6390    -0.0140     0.0770 ca         1 8EJ      -0.280900
      4 C6          -0.1160     1.1530     0.1380 ca         1 8EJ       0.434200
      5 C7           2.1310    -0.0360     0.1300 c          1 8EJ       0.690700
      6 C2          -2.1030     0.0240     0.0300 ca         1 8EJ       0.440600
      7 C3          -1.4360    -1.1980    -0.0230 ca         1 8EJ      -0.257300
      8 N2           2.7570     1.0960    -0.2250 nt         1 8EJ      -0.669000
      9 O1           2.7280    -1.0430     0.4870 o          1 8EJ      -0.603100
     10 H1           0.4800    -2.1570    -0.0250 ha         1 8EJ       0.160000
     11 H2           0.3640     2.1220     0.2320 h4         1 8EJ       0.015100
     12 H3          -3.9260     0.4960    -0.9810 hc         1 8EJ       0.054033
     13 H4          -4.0540    -0.8770     0.1170 hc         1 8EJ       0.054033
     14 H5          -3.9750     0.7720     0.7520 hc         1 8EJ       0.054033
     15 H6          -1.9980    -2.1200    -0.0860 ha         1 8EJ       0.145000
     16 H7           2.2780     1.8690    -0.6530 hn         1 8EJ       0.315000
     17 H8           3.7630     1.1300    -0.2220 hn         1 8EJ       0.315000
     18 C1          -3.5970     0.1010    -0.0180 c3         1 8EJ      -0.148400
@<TRIPOS>BOND
     1     1     4 ar  
     2     1     6 ar  
     3     2     3 ar  
     4     2     7 ar  
     5     2    10 1   
     6     3     4 ar  
     7     3     5 1   
     8     4    11 1   
     9     5     8 1   
    10     5     9 2   
    11     6     7 ar  
    12     6    18 1   
    13     7    15 1   
    14     8    16 1   
    15     8    17 1   
    16    12    18 1   
    17    13    18 1   
    18    14    18 1   
@<TRIPOS>SUBSTRUCTURE
     1 8EJ         1 TEMP              0 ****  ****    0 ROOT
