@<TRIPOS>MOLECULE
8EJ
   18    18     1     0     0
SMALL
No Charge or Current Charge


@<TRIPOS>ATOM
      1 N1          -1.4410     1.1890    -0.0270 nb         1 8EJ      -0.683000
      2 C4          -0.0620    -1.2680     0.0200 ca         1 8EJ      -0.018000
      3 C5           0.6490    -0.0500    -0.0080 ca         1 8EJ      -0.215600
      4 C6          -0.0890     1.1480    -0.0310 ca         1 8EJ       0.368900
      5 C7           2.1500    -0.0440    -0.0140 c          1 8EJ       0.623700
      6 C2          -2.1140     0.0190     0.0030 ca         1 8EJ       0.375300
      7 C3          -1.4640    -1.2260     0.0240 ca         1 8EJ      -0.174000
      8 N2           2.7940     1.1420    -0.0410 nt         1 8EJ      -0.602000
      9 O1           2.8050    -1.0720     0.0050 o          1 8EJ      -0.603100
     10 H1           0.4580    -2.2250     0.0370 ha         1 8EJ       0.142000
     11 H2           0.4040     2.1190    -0.0540 h4         1 8EJ       0.015100
     12 H3          -4.0050     0.2580    -1.0180 hc         1 8EJ       0.054033
     13 H4          -4.0850    -0.7960     0.4040 hc         1 8EJ       0.054033
     14 H5          -3.9740     0.9570     0.6120 hc         1 8EJ       0.054033
     15 H6          -2.0410    -2.1460     0.0440 ha         1 8EJ       0.127000
     16 H7           2.2790     2.0090    -0.0570 hn         1 8EJ       0.315000
     17 H8           3.8030     1.1490    -0.0450 hn         1 8EJ       0.315000
     18 C1          -3.6270     0.1150     0.0010 c3         1 8EJ      -0.148400
@<TRIPOS>BOND
     1     1     4 ar  
     2     1     6 ar  
     3     2     3 ar  
     4     2     7 ar  
     5     2    10 1   
     6     3     4 ar  
     7     3     5 1   
     8     4    11 1   
     9     5     8 1   
    10     5     9 2   
    11     6     7 ar  
    12     6    18 1   
    13     7    15 1   
    14     8    16 1   
    15     8    17 1   
    16    12    18 1   
    17    13    18 1   
    18    14    18 1   
@<TRIPOS>SUBSTRUCTURE
     1 8EJ         1 TEMP              0 ****  ****    0 ROOT
