@<TRIPOS>MOLECULE
8EM
   78    84     1     0     0
SMALL
No Charge or Current Charge


@<TRIPOS>ATOM
      1 N1         107.2420   -74.0970     5.0040 n          1 8EM      -0.336300
      2 N3         103.3330   -70.1730     8.2390 na         1 8EM       0.099600
      3 C4         110.0600   -75.9090     5.3690 c3         1 8EM      -0.075400
      4 C5         111.4780   -75.9630     5.9700 c3         1 8EM      -0.091100
      5 C6         105.9600   -74.0030     4.4570 c          1 8EM       0.570600
      6 C7         108.1570   -72.9440     4.7680 c3         1 8EM       0.139300
      7 C8         107.9120   -71.7480     5.6880 ca         1 8EM      -0.099300
      8 C10        107.8410   -69.3270     6.0110 ca         1 8EM      -0.091000
      9 C13        106.0440   -68.0980     8.9950 ca         1 8EM      -0.109500
     10 C15        105.9700   -66.9820     9.8650 ca         1 8EM      -0.075000
     11 C17        108.2010   -66.2630     9.2310 ca         1 8EM      -0.095000
     12 C20        107.5480   -71.9210     7.0390 ca         1 8EM      -0.097500
     13 C21        104.6820   -77.2920     5.7570 ca         1 8EM      -0.095000
     14 C22        103.3680   -77.3130     5.2650 ca         1 8EM      -0.070000
     15 C24        103.7400   -75.1670     4.2160 ca         1 8EM      -0.049000
     16 C26        100.5650   -76.6930     6.3630 ca         1 8EM      -0.140600
     17 C28         99.9400   -77.6260     8.5390 ca         1 8EM      -0.118500
     18 O1          99.3830   -77.0910     4.3370 o          1 8EM      -0.579100
     19 C25        100.4340   -76.7190     4.8500 c          1 8EM       0.620700
     20 C31        101.3470   -75.7200     7.0320 ca         1 8EM      -0.074500
     21 C30        101.4370   -75.7170     8.4340 ca         1 8EM      -0.118500
     22 C29        100.7390   -76.6720     9.1890 ca         1 8EM      -0.086000
     23 C27         99.8470   -77.6320     7.1370 ca         1 8EM      -0.074500
     24 N6         101.5020   -76.2120     4.0540 n          1 8EM      -0.239400
     25 C32        101.2040   -75.8700     2.6370 c3         1 8EM       0.075700
     26 C33        101.3570   -77.0610     1.7280 cc         1 8EM       0.096300
     27 O2         100.3100   -77.4260     0.9090 os         1 8EM      -0.242000
     28 C36        100.7250   -78.5300     0.1970 cc         1 8EM       0.131900
     29 C35        102.0070   -78.8470     0.5550 cd         1 8EM      -0.188000
     30 C34        102.4110   -77.9110     1.5290 cd         1 8EM      -0.161000
     31 C23        102.8960   -76.2760     4.4360 ca         1 8EM      -0.071000
     32 C1         105.5420   -76.2170     5.4800 ca         1 8EM       0.191400
     33 C          105.0620   -75.1510     4.7150 ca         1 8EM      -0.198600
     34 O          105.5920   -73.0380     3.7980 o          1 8EM      -0.533000
     35 C2         107.6190   -75.2240     5.7530 cc         1 8EM       0.513900
     36 C3         109.0120   -75.3220     6.3460 c3         1 8EM      -0.126700
     37 N          106.8330   -76.2720     6.0110 nd         1 8EM      -0.635100
     38 C19        107.3290   -70.8060     7.8650 ca         1 8EM      -0.091000
     39 C11        107.4600   -69.4890     7.3630 cp         1 8EM      -0.030000
     40 C9         108.0610   -70.4410     5.1830 ca         1 8EM      -0.097500
     41 C12        107.2460   -68.3020     8.2450 cp         1 8EM      -0.003000
     42 C18        108.3020   -67.3670     8.3740 ca         1 8EM      -0.107000
     43 C16        107.0350   -66.0750     9.9820 ca         1 8EM      -0.112000
     44 C14        104.8570   -68.9660     8.8900 cc         1 8EM       0.547500
     45 N5         104.0600   -69.1880     9.9770 nc         1 8EM      -0.380000
     46 N4         103.0930   -69.9610     9.5730 nd         1 8EM      -0.179800
     47 N2         104.4550   -69.5380     7.7760 nd         1 8EM      -0.487800
     48 H1         102.7220   -70.7450     7.6550 hn         1 8EM       0.409000
     49 H2         110.0870   -75.3150     4.4470 hc         1 8EM       0.048700
     50 H3         109.7560   -76.9220     5.0800 hc         1 8EM       0.048700
     51 H4         112.1830   -76.3920     5.2470 hc         1 8EM       0.037700
     52 H5         111.8270   -74.9580     6.2340 hc         1 8EM       0.037700
     53 H6         111.4940   -76.5850     6.8730 hc         1 8EM       0.037700
     54 H7         109.2060   -73.2450     4.8530 h1         1 8EM       0.073200
     55 H8         108.0420   -72.6180     3.7260 h1         1 8EM       0.073200
     56 H9         107.9590   -68.3270     5.6020 ha         1 8EM       0.120000
     57 H10        105.0680   -66.7980    10.4450 ha         1 8EM       0.129000
     58 H11        109.0270   -65.5610     9.3190 ha         1 8EM       0.117000
     59 H12        107.4320   -72.9160     7.4600 ha         1 8EM       0.114500
     60 H13        105.0360   -78.1160     6.3710 ha         1 8EM       0.138000
     61 H14        102.7280   -78.1570     5.5120 ha         1 8EM       0.132000
     62 H15        103.3690   -74.3070     3.6640 ha         1 8EM       0.141000
     63 H16         99.3900   -78.3610     9.1230 ha         1 8EM       0.117500
     64 H17        101.8760   -74.9530     6.4720 ha         1 8EM       0.120500
     65 H18        102.0460   -74.9680     8.9360 ha         1 8EM       0.117500
     66 H19        100.8090   -76.6670    10.2750 ha         1 8EM       0.119000
     67 H20         99.2240   -78.3800     6.6500 ha         1 8EM       0.120500
     68 H21        101.8740   -75.0770     2.2880 h1         1 8EM       0.082700
     69 H22        100.1820   -75.4790     2.5580 h1         1 8EM       0.082700
     70 H23        100.0330   -78.9730    -0.5070 h4         1 8EM       0.052100
     71 H24        102.5950   -79.6680     0.1580 ha         1 8EM       0.142000
     72 H25        103.3730   -77.8680     2.0300 ha         1 8EM       0.142000
     73 H26        108.9790   -75.9630     7.2360 hc         1 8EM       0.072700
     74 H27        109.3490   -74.3500     6.7220 hc         1 8EM       0.072700
     75 H28        107.0560   -70.9590     8.9060 ha         1 8EM       0.120000
     76 H29        108.3470   -70.2850     4.1450 ha         1 8EM       0.114500
     77 H30        109.2210   -67.5160     7.8120 ha         1 8EM       0.118000
     78 H31        106.9510   -65.2220    10.6520 ha         1 8EM       0.120000
@<TRIPOS>BOND
     1     1     5 1   
     2     1     6 1   
     3     1    35 1   
     4     2    46 1   
     5     2    47 1   
     6     2    48 1   
     7     3     4 1   
     8     3    36 1   
     9     3    49 1   
    10     3    50 1   
    11     4    51 1   
    12     4    52 1   
    13     4    53 1   
    14     5    33 1   
    15     5    34 2   
    16     6     7 1   
    17     6    54 1   
    18     6    55 1   
    19     7    12 ar  
    20     7    40 ar  
    21     8    39 ar  
    22     8    40 ar  
    23     8    56 1   
    24     9    10 ar  
    25     9    41 ar  
    26     9    44 1   
    27    10    43 ar  
    28    10    57 1   
    29    11    42 ar  
    30    11    43 ar  
    31    11    58 1   
    32    12    38 ar  
    33    12    59 1   
    34    13    14 ar  
    35    13    32 ar  
    36    13    60 1   
    37    14    31 ar  
    38    14    61 1   
    39    15    31 ar  
    40    15    33 ar  
    41    15    62 1   
    42    16    19 1   
    43    16    20 ar  
    44    16    23 ar  
    45    17    22 ar  
    46    17    23 ar  
    47    17    63 1   
    48    18    19 2   
    49    19    24 1   
    50    20    21 ar  
    51    20    64 1   
    52    21    22 ar  
    53    21    65 1   
    54    22    66 1   
    55    23    67 1   
    56    24    25 1   
    57    24    31 1   
    58    25    26 1   
    59    25    68 1   
    60    25    69 1   
    61    26    27 1   
    62    26    30 2   
    63    27    28 1   
    64    28    29 2   
    65    28    70 1   
    66    29    30 1   
    67    29    71 1   
    68    30    72 1   
    69    32    33 ar  
    70    32    37 1   
    71    35    36 1   
    72    35    37 2   
    73    36    73 1   
    74    36    74 1   
    75    38    39 ar  
    76    38    75 1   
    77    39    41 1   
    78    40    76 1   
    79    41    42 ar  
    80    42    77 1   
    81    43    78 1   
    82    44    45 1   
    83    44    47 2   
    84    45    46 2   
@<TRIPOS>SUBSTRUCTURE
     1 8EM         1 TEMP              0 ****  ****    0 ROOT
