@<TRIPOS>MOLECULE
8EM
   78    84     1     0     0
SMALL
abcg2


@<TRIPOS>ATOM
      1 N1         107.2810   -74.1570     4.8800 n          1 8EM      -0.336300
      2 N3         103.1670   -70.7230     7.9280 na         1 8EM       0.099600
      3 C4         109.9910   -75.9630     4.9310 c3         1 8EM      -0.075400
      4 C5         111.4120   -76.1360     5.4580 c3         1 8EM      -0.091100
      5 C6         106.0040   -73.9490     4.3480 c          1 8EM       0.570600
      6 C7         108.1960   -73.0110     4.7700 c3         1 8EM       0.139300
      7 C8         107.8690   -71.9160     5.7590 ca         1 8EM      -0.099300
      8 C10        107.7760   -69.5600     6.2950 ca         1 8EM      -0.091000
      9 C13        105.7050   -68.6670     9.1730 ca         1 8EM      -0.109500
     10 C15        105.4840   -67.6620    10.1170 ca         1 8EM      -0.075000
     11 C17        107.6780   -66.7740     9.7200 ca         1 8EM      -0.095000
     12 C20        107.3850   -72.2010     7.0340 ca         1 8EM      -0.097500
     13 C21        104.5850   -77.2220     5.4890 ca         1 8EM      -0.095000
     14 C22        103.2820   -77.1060     5.0570 ca         1 8EM      -0.070000
     15 C24        103.7420   -74.9300     4.1290 ca         1 8EM      -0.049000
     16 C26        100.7480   -75.6680     6.2880 ca         1 8EM      -0.140600
     17 C28        100.4490   -76.4080     8.5660 ca         1 8EM      -0.118500
     18 O1          99.2790   -76.0230     4.4610 o          1 8EM      -0.579100
     19 C25        100.4400   -75.8640     4.8350 c          1 8EM       0.620700
     20 C31        101.4980   -74.5830     6.7440 ca         1 8EM      -0.074500
     21 C30        101.7170   -74.4110     8.1050 ca         1 8EM      -0.118500
     22 C29        101.2020   -75.3280     9.0170 ca         1 8EM      -0.086000
     23 C27        100.2120   -76.5700     7.2070 ca         1 8EM      -0.074500
     24 N6         101.4910   -75.8350     3.9660 n          1 8EM      -0.239400
     25 C32        101.2440   -75.9520     2.5180 c3         1 8EM       0.075700
     26 C33        101.6470   -77.2780     1.9850 cc         1 8EM       0.096300
     27 O2         100.9420   -78.3710     2.4180 os         1 8EM      -0.242000
     28 C36        101.5080   -79.4730     1.8450 cc         1 8EM       0.131900
     29 C35        102.5500   -79.1070     1.0570 cd         1 8EM      -0.188000
     30 C34        102.6420   -77.6790     1.1530 cd         1 8EM      -0.161000
     31 C23        102.8500   -75.9470     4.3930 ca         1 8EM      -0.071000
     32 C1         105.5020   -76.1820     5.2560 ca         1 8EM       0.191400
     33 C          105.0670   -75.0410     4.5610 ca         1 8EM      -0.198600
     34 O          105.7310   -72.9030     3.7690 o          1 8EM      -0.533000
     35 C2         107.6220   -75.3250     5.5380 cc         1 8EM       0.513900
     36 C3         109.0270   -75.5020     6.0370 c3         1 8EM      -0.126700
     37 N          106.7920   -76.3030     5.7210 nd         1 8EM      -0.635100
     38 C19        107.0880   -71.1790     7.9230 ca         1 8EM      -0.091000
     39 C11        107.2680   -69.8420     7.5640 cp         1 8EM      -0.030000
     40 C9         108.0660   -70.5840     5.4020 ca         1 8EM      -0.097500
     41 C12        106.9440   -68.7480     8.5100 cp         1 8EM      -0.003000
     42 C18        107.9110   -67.7800     8.7920 ca         1 8EM      -0.107000
     43 C16        106.4630   -66.7190    10.3950 ca         1 8EM      -0.112000
     44 C14        104.5980   -69.5880     8.8800 cc         1 8EM       0.547500
     45 N5         103.8410   -70.1870     9.8360 nc         1 8EM      -0.380000
     46 N4         102.9420   -70.9030     9.2100 nd         1 8EM      -0.179800
     47 N2         104.1760   -69.9170     7.6610 nd         1 8EM      -0.487800
     48 H1         102.6090   -71.1690     7.2100 hn         1 8EM       0.409000
     49 H2         109.9880   -75.2440     4.1070 hc         1 8EM       0.048700
     50 H3         109.6220   -76.9060     4.5210 hc         1 8EM       0.048700
     51 H4         112.0820   -76.4800     4.6690 hc         1 8EM       0.037700
     52 H5         111.8020   -75.1910     5.8450 hc         1 8EM       0.037700
     53 H6         111.4410   -76.8680     6.2690 hc         1 8EM       0.037700
     54 H7         109.2130   -73.3610     4.9080 h1         1 8EM       0.073200
     55 H8         108.1200   -72.6250     3.7570 h1         1 8EM       0.073200
     56 H9         107.9150   -68.5300     5.9910 ha         1 8EM       0.120000
     57 H10        104.5240   -67.6110    10.6160 ha         1 8EM       0.129000
     58 H11        108.4490   -66.0410     9.9250 ha         1 8EM       0.117000
     59 H12        107.2220   -73.2260     7.3420 ha         1 8EM       0.114500
     60 H13        104.9220   -78.1070     6.0120 ha         1 8EM       0.138000
     61 H14        102.5750   -77.9050     5.2340 ha         1 8EM       0.132000
     62 H15        103.4210   -74.0320     3.6180 ha         1 8EM       0.141000
     63 H16        100.0460   -77.1230     9.2720 ha         1 8EM       0.117500
     64 H17        101.9060   -73.8710     6.0390 ha         1 8EM       0.120500
     65 H18        102.2910   -73.5630     8.4540 ha         1 8EM       0.117500
     66 H19        101.3850   -75.1980    10.0760 ha         1 8EM       0.119000
     67 H20         99.6210   -77.4040     6.8500 ha         1 8EM       0.120500
     68 H21        101.8150   -75.1830     2.0000 h1         1 8EM       0.082700
     69 H22        100.1840   -75.7670     2.3610 h1         1 8EM       0.082700
     70 H23        101.0600   -80.4190     2.0940 h4         1 8EM       0.052100
     71 H24        103.1780   -79.7660     0.4810 ha         1 8EM       0.142000
     72 H25        103.3610   -77.0360     0.6730 ha         1 8EM       0.142000
     73 H26        108.9840   -76.2670     6.8120 hc         1 8EM       0.072700
     74 H27        109.4010   -74.5900     6.5040 hc         1 8EM       0.072700
     75 H28        106.7110   -71.4240     8.9080 ha         1 8EM       0.120000
     76 H29        108.4300   -70.3440     4.4110 ha         1 8EM       0.114500
     77 H30        108.8690   -67.8380     8.2910 ha         1 8EM       0.118000
     78 H31        106.2750   -65.9430    11.1250 ha         1 8EM       0.120000
@<TRIPOS>BOND
     1     1     5 1   
     2     1     6 1   
     3     1    35 1   
     4     2    46 1   
     5     2    47 1   
     6     2    48 1   
     7     3     4 1   
     8     3    36 1   
     9     3    49 1   
    10     3    50 1   
    11     4    51 1   
    12     4    52 1   
    13     4    53 1   
    14     5    33 1   
    15     5    34 2   
    16     6     7 1   
    17     6    54 1   
    18     6    55 1   
    19     7    12 ar  
    20     7    40 ar  
    21     8    39 ar  
    22     8    40 ar  
    23     8    56 1   
    24     9    10 ar  
    25     9    41 ar  
    26     9    44 1   
    27    10    43 ar  
    28    10    57 1   
    29    11    42 ar  
    30    11    43 ar  
    31    11    58 1   
    32    12    38 ar  
    33    12    59 1   
    34    13    14 ar  
    35    13    32 ar  
    36    13    60 1   
    37    14    31 ar  
    38    14    61 1   
    39    15    31 ar  
    40    15    33 ar  
    41    15    62 1   
    42    16    19 1   
    43    16    20 ar  
    44    16    23 ar  
    45    17    22 ar  
    46    17    23 ar  
    47    17    63 1   
    48    18    19 2   
    49    19    24 1   
    50    20    21 ar  
    51    20    64 1   
    52    21    22 ar  
    53    21    65 1   
    54    22    66 1   
    55    23    67 1   
    56    24    25 1   
    57    24    31 1   
    58    25    26 1   
    59    25    68 1   
    60    25    69 1   
    61    26    27 1   
    62    26    30 2   
    63    27    28 1   
    64    28    29 2   
    65    28    70 1   
    66    29    30 1   
    67    29    71 1   
    68    30    72 1   
    69    32    33 ar  
    70    32    37 1   
    71    35    36 1   
    72    35    37 2   
    73    36    73 1   
    74    36    74 1   
    75    38    39 ar  
    76    38    75 1   
    77    39    41 1   
    78    40    76 1   
    79    41    42 ar  
    80    42    77 1   
    81    43    78 1   
    82    44    45 1   
    83    44    47 2   
    84    45    46 2   
@<TRIPOS>SUBSTRUCTURE
     1 8EM         1 TEMP              0 ****  ****    0 ROOT
