@<TRIPOS>MOLECULE
8EN
   52    55     1     0     0
SMALL
No Charge or Current Charge


@<TRIPOS>ATOM
      1 C1          -1.5520    -4.0290    -0.2990 ca         1 8EN      -0.079300
      2 C2          -1.5420    -2.6460     0.0470 ca         1 8EN      -0.009000
      3 C3          -0.2980    -1.9670     0.0690 ca         1 8EN      -0.117000
      4 C11          5.0040    -1.4180    -0.0620 ca         1 8EN      -0.060000
      5 C12          6.3750    -1.1210    -0.0080 ca         1 8EN      -0.124000
      6 C13          6.8150     0.2100     0.0270 ca         1 8EN      -0.038000
      7 C14          5.8810     1.2660     0.0140 ca         1 8EN      -0.205300
      8 C15          4.5030     0.9630    -0.0500 ca         1 8EN      -0.009000
      9 C16         -2.8340    -4.8400    -0.4850 c3         1 8EN      -0.043800
     10 C17         -2.7630    -1.8880     0.4020 cc         1 8EN      -0.079000
     11 C18         -2.8220    -0.6040    -0.1540 cd         1 8EN      -0.087000
     12 C20         -5.0490    -0.4090     0.8240 cd         1 8EN      -0.061000
     13 C21         -5.0310    -1.7200     1.3740 cd         1 8EN      -0.086000
     14 C22         -3.8800    -2.4440     1.1460 cc         1 8EN      -0.089000
     15 C23         -4.2610     1.3650    -0.3280 cd         1 8EN      -0.287100
     16 C24         -5.5270     1.5620     0.1730 cc         1 8EN       0.209200
     17 C27         -6.0300     3.8630    -0.6250 c          1 8EN       0.608100
     18 C28         -7.1480     4.8980    -0.5730 c3         1 8EN      -0.176100
     19 C30          6.3430     2.7270     0.0420 c3         1 8EN       0.359300
     20 C4           0.9130    -2.6270    -0.2250 ca         1 8EN      -0.026000
     21 C5           0.8820    -3.9940    -0.5310 ca         1 8EN      -0.158000
     22 C6          -0.3360    -4.6840    -0.5750 ca         1 8EN      -0.085000
     23 N7           2.1830    -1.9870    -0.1970 ns         1 8EN      -0.140000
     24 C8           2.5540    -0.6470    -0.1510 c          1 8EN       0.620700
     25 C9           4.0460    -0.3750    -0.0870 ca         1 8EN      -0.162600
     26 O10          1.7440     0.2730    -0.1730 o          1 8EN      -0.571100
     27 N19         -3.9910     0.1020     0.1260 na         1 8EN       0.141100
     28 N25         -6.0170     0.4880     0.8770 nc         1 8EN      -0.340600
     29 N26         -6.3130     2.6860     0.0330 ns         1 8EN      -0.390100
     30 O29         -4.9770     4.0810    -1.2090 o          1 8EN      -0.590100
     31 F31          7.5900     2.8720     0.5470 f          1 8EN      -0.110333
     32 F32          6.3550     3.2610    -1.2000 f          1 8EN      -0.110333
     33 F33          5.5300     3.5020     0.7970 f          1 8EN      -0.110333
     34 H1          -0.2800    -0.9260     0.3710 ha         1 8EN       0.150000
     35 H2           4.7080    -2.4640    -0.0870 ha         1 8EN       0.119000
     36 H3           7.1030    -1.9300     0.0060 ha         1 8EN       0.126000
     37 H4           7.8840     0.4130     0.0630 ha         1 8EN       0.136000
     38 H5           3.7810     1.7790    -0.0740 ha         1 8EN       0.152000
     39 H6          -3.6600    -4.2230    -0.8580 hc         1 8EN       0.044700
     40 H7          -2.6920    -5.6420    -1.2190 hc         1 8EN       0.044700
     41 H8          -3.1450    -5.3150     0.4520 hc         1 8EN       0.044700
     42 H9          -2.0740    -0.1260    -0.7730 h4         1 8EN       0.155000
     43 H10         -5.8670    -2.1250     1.9360 ha         1 8EN       0.142000
     44 H11         -3.7940    -3.4410     1.5640 ha         1 8EN       0.126000
     45 H12         -3.5900     1.9760    -0.9180 h4         1 8EN       0.259000
     46 H13         -7.4070     5.0930     0.4740 hc         1 8EN       0.064033
     47 H14         -6.8930     5.8220    -1.1040 hc         1 8EN       0.064033
     48 H15         -8.0700     4.4500    -0.9620 hc         1 8EN       0.064033
     49 H16          1.8050    -4.5260    -0.7520 ha         1 8EN       0.111000
     50 H17         -0.3360    -5.7390    -0.8420 ha         1 8EN       0.115000
     51 H18          2.9610    -2.6320    -0.2110 hn         1 8EN       0.153000
     52 H19         -7.2260     2.6590     0.4660 hn         1 8EN       0.335500
@<TRIPOS>BOND
     1     1     2 ar  
     2     1     9 1   
     3     1    22 ar  
     4     2     3 ar  
     5     2    10 1   
     6     3    20 ar  
     7     3    34 1   
     8     4     5 ar  
     9     4    25 ar  
    10     4    35 1   
    11     5     6 ar  
    12     5    36 1   
    13     6     7 ar  
    14     6    37 1   
    15     7     8 ar  
    16     7    19 1   
    17     8    25 ar  
    18     8    38 1   
    19     9    39 1   
    20     9    40 1   
    21     9    41 1   
    22    10    11 2   
    23    10    14 1   
    24    11    27 1   
    25    11    42 1   
    26    12    13 1   
    27    12    27 1   
    28    12    28 2   
    29    13    14 2   
    30    13    43 1   
    31    14    44 1   
    32    15    16 2   
    33    15    27 1   
    34    15    45 1   
    35    16    28 1   
    36    16    29 1   
    37    17    18 1   
    38    17    29 1   
    39    17    30 2   
    40    18    46 1   
    41    18    47 1   
    42    18    48 1   
    43    19    31 1   
    44    19    32 1   
    45    19    33 1   
    46    20    21 ar  
    47    20    23 1   
    48    21    22 ar  
    49    21    49 1   
    50    22    50 1   
    51    23    24 1   
    52    23    51 1   
    53    24    25 1   
    54    24    26 2   
    55    29    52 1   
@<TRIPOS>SUBSTRUCTURE
     1 8EN         1 TEMP              0 ****  ****    0 ROOT
