@<TRIPOS>MOLECULE
8EN
   52    55     1     0     0
SMALL
abcg2


@<TRIPOS>ATOM
      1 C1          -1.5030    -3.8290    -0.6560 ca         1 8EN      -0.079300
      2 C2          -1.4200    -2.5330    -0.1320 ca         1 8EN      -0.009000
      3 C3          -0.1870    -1.9090     0.0450 ca         1 8EN      -0.117000
      4 C11          4.9860    -1.4520     0.6890 ca         1 8EN      -0.060000
      5 C12          6.3350    -1.1570     0.7970 ca         1 8EN      -0.124000
      6 C13          6.8110     0.0950     0.4390 ca         1 8EN      -0.038000
      7 C14          5.9210     1.0600    -0.0150 ca         1 8EN      -0.205300
      8 C15          4.5660     0.7740    -0.1120 ca         1 8EN      -0.009000
      9 C16         -2.8150    -4.5160    -0.9090 c3         1 8EN      -0.043800
     10 C17         -2.6400    -1.7800     0.2380 cc         1 8EN      -0.079000
     11 C18         -2.8850    -0.5680    -0.3340 cd         1 8EN      -0.087000
     12 C20         -4.9070    -0.3270     0.9420 cd         1 8EN      -0.061000
     13 C21         -4.6680    -1.5710     1.5520 cd         1 8EN      -0.086000
     14 C22         -3.5570    -2.2800     1.2040 cc         1 8EN      -0.089000
     15 C23         -4.4430     1.3550    -0.4320 cd         1 8EN      -0.287100
     16 C24         -5.6150     1.5570     0.2590 cc         1 8EN       0.209200
     17 C27         -6.3770     3.7260    -0.5630 c          1 8EN       0.608100
     18 C28         -7.4830     4.7350    -0.4110 c3         1 8EN      -0.176100
     19 C30          6.3940     2.4180    -0.4350 c3         1 8EN       0.359300
     20 C4           0.9950    -2.5630    -0.2960 ca         1 8EN      -0.026000
     21 C5           0.9190    -3.8580    -0.8050 ca         1 8EN      -0.158000
     22 C6          -0.3090    -4.4680    -0.9800 ca         1 8EN      -0.085000
     23 N7           2.2740    -2.0170    -0.1390 ns         1 8EN      -0.140000
     24 C8           2.6210    -0.7310     0.1060 c          1 8EN       0.620700
     25 C9           4.0930    -0.4890     0.2240 ca         1 8EN      -0.162600
     26 O10          1.8260     0.1860     0.2110 o          1 8EN      -0.571100
     27 N19         -3.9950     0.1360     0.0160 na         1 8EN       0.141100
     28 N25         -5.8980     0.5350     1.0960 nc         1 8EN      -0.340600
     29 N26         -6.5020     2.6180     0.2080 ns         1 8EN      -0.390100
     30 O29         -5.4300     3.8960    -1.3120 o          1 8EN      -0.590100
     31 F31          7.6820     2.6240    -0.1510 f          1 8EN      -0.110333
     32 F32          6.2490     2.5990    -1.7550 f          1 8EN      -0.110333
     33 F33          5.6970     3.3940     0.1620 f          1 8EN      -0.110333
     34 H1          -0.1650    -0.9160     0.4630 ha         1 8EN       0.150000
     35 H2           4.6420    -2.4320     0.9960 ha         1 8EN       0.119000
     36 H3           7.0220    -1.9070     1.1670 ha         1 8EN       0.126000
     37 H4           7.8680     0.3030     0.5230 ha         1 8EN       0.136000
     38 H5           3.8660     1.5250    -0.4570 ha         1 8EN       0.152000
     39 H6          -3.5370    -3.8470    -1.3790 hc         1 8EN       0.044700
     40 H7          -2.6780    -5.3730    -1.5670 hc         1 8EN       0.044700
     41 H8          -3.2720    -4.8830     0.0110 hc         1 8EN       0.044700
     42 H9          -2.2440    -0.1170    -1.0790 h4         1 8EN       0.155000
     43 H10         -5.3690    -1.9390     2.2890 ha         1 8EN       0.142000
     44 H11         -3.3570    -3.2310     1.6780 ha         1 8EN       0.126000
     45 H12         -3.9050     1.9290    -1.1620 h4         1 8EN       0.259000
     46 H13         -7.0910     5.6230     0.0870 hc         1 8EN       0.064033
     47 H14         -7.8330     5.0410    -1.3950 hc         1 8EN       0.064033
     48 H15         -8.3310     4.3700     0.1640 hc         1 8EN       0.064033
     49 H16          1.8250    -4.3900    -1.0720 ha         1 8EN       0.111000
     50 H17         -0.3400    -5.4680    -1.3950 ha         1 8EN       0.115000
     51 H18          3.0250    -2.6590    -0.3380 hn         1 8EN       0.153000
     52 H19         -7.3050     2.5330     0.8120 hn         1 8EN       0.335500
@<TRIPOS>BOND
     1     1     2 ar  
     2     1     9 1   
     3     1    22 ar  
     4     2     3 ar  
     5     2    10 1   
     6     3    20 ar  
     7     3    34 1   
     8     4     5 ar  
     9     4    25 ar  
    10     4    35 1   
    11     5     6 ar  
    12     5    36 1   
    13     6     7 ar  
    14     6    37 1   
    15     7     8 ar  
    16     7    19 1   
    17     8    25 ar  
    18     8    38 1   
    19     9    39 1   
    20     9    40 1   
    21     9    41 1   
    22    10    11 2   
    23    10    14 1   
    24    11    27 1   
    25    11    42 1   
    26    12    13 1   
    27    12    27 1   
    28    12    28 2   
    29    13    14 2   
    30    13    43 1   
    31    14    44 1   
    32    15    16 2   
    33    15    27 1   
    34    15    45 1   
    35    16    28 1   
    36    16    29 1   
    37    17    18 1   
    38    17    29 1   
    39    17    30 2   
    40    18    46 1   
    41    18    47 1   
    42    18    48 1   
    43    19    31 1   
    44    19    32 1   
    45    19    33 1   
    46    20    21 ar  
    47    20    23 1   
    48    21    22 ar  
    49    21    49 1   
    50    22    50 1   
    51    23    24 1   
    52    23    51 1   
    53    24    25 1   
    54    24    26 2   
    55    29    52 1   
@<TRIPOS>SUBSTRUCTURE
     1 8EN         1 TEMP              0 ****  ****    0 ROOT
