@<TRIPOS>MOLECULE
8EP
   35    36     1     0     0
SMALL
bcc


@<TRIPOS>ATOM
      1 OAC         -0.4230     1.5350     1.7260 o          1 8EP      -0.832800
      2 CAN         -0.5790     1.7020     0.5060 c          1 8EP       0.949600
      3 OAE         -0.9340     2.7560    -0.0640 o          1 8EP      -0.832800
      4 CAT         -0.3930     0.4810    -0.4250 c5         1 8EP       0.016800
      5 CB          -1.7760    -0.0510    -0.8330 c3         1 8EP      -0.083400
      6 CA          -2.8190    -0.2580     0.2810 c3         1 8EP       0.039500
      7 N           -2.4030    -1.0990     1.3920 n8         1 8EP      -0.880800
      8 C           -4.0890    -0.8210    -0.3910 c          1 8EP       0.928600
      9 O           -4.2780    -2.0520    -0.3160 o          1 8EP      -0.867800
     10 OXT         -4.8030    -0.0000    -1.0040 o          1 8EP      -0.867800
     11 OAL          0.3550    -0.5370     0.2420 os         1 8EP      -0.370600
     12 CAS          1.4290    -0.9570    -0.5560 c5         1 8EP       0.135100
     13 CAQ          2.5660    -1.5040     0.3010 c6         1 8EP       0.144100
     14 OAG          3.3630    -2.2690    -0.5790 oh         1 8EP      -0.610800
     15 CAP          3.4090    -0.3930     0.9390 c6         1 8EP       0.095100
     16 OAF          2.7150     0.0910     2.0590 oh         1 8EP      -0.529800
     17 CAH          3.7020     0.6860    -0.0920 c6         1 8EP       0.110400
     18 OAK          2.5270     1.2170    -0.6520 os         1 8EP      -0.359600
     19 CAR          1.8010     0.2620    -1.3940 c5         1 8EP       0.104100
     20 CAJ          0.4240     0.8120    -1.6900 c5         1 8EP      -0.086400
     21 HB          -2.2000     0.6420    -1.5640 hc         1 8EP       0.028700
     22 HBA         -1.6270    -1.0020    -1.3630 hc         1 8EP       0.028700
     23 HA          -3.0710     0.7270     0.6870 h1         1 8EP       0.069700
     24 HN          -2.2260    -2.0320     1.0380 hn         1 8EP       0.327800
     25 HNA         -1.5170    -0.7570     1.7420 hn         1 8EP       0.327800
     26 HAS          1.1210    -1.7600    -1.2450 h1         1 8EP       0.031700
     27 HAQ          2.1440    -2.1310     1.0990 h1         1 8EP       0.066700
     28 HOAG         4.0860    -2.6590    -0.0780 ho         1 8EP       0.380000
     29 HAP          4.3770    -0.8300     1.2360 h1         1 8EP      -0.020300
     30 HOAF         3.1960     0.8460     2.4130 ho         1 8EP       0.391000
     31 HAH          4.2460     1.5170     0.3680 h1         1 8EP       0.021200
     32 HAHA         4.3570     0.2650    -0.8680 h1         1 8EP       0.021200
     33 HAR          2.3550    -0.0220    -2.2990 h1         1 8EP       0.015700
     34 HAJ          0.0190     0.2880    -2.5600 hc         1 8EP       0.054200
     35 HAJA         0.4240     1.8760    -1.9220 hc         1 8EP       0.054200
@<TRIPOS>BOND
     1     1     2 1   
     2     2     3 1   
     3     2     4 1   
     4     4     5 1   
     5     4    11 1   
     6     4    20 1   
     7     5     6 1   
     8     5    21 1   
     9     5    22 1   
    10     6     7 1   
    11     6     8 1   
    12     6    23 1   
    13     7    24 1   
    14     7    25 1   
    15     8     9 1   
    16     8    10 1   
    17    11    12 1   
    18    12    13 1   
    19    12    19 1   
    20    12    26 1   
    21    13    14 1   
    22    13    15 1   
    23    13    27 1   
    24    14    28 1   
    25    15    16 1   
    26    15    17 1   
    27    15    29 1   
    28    16    30 1   
    29    17    18 1   
    30    17    31 1   
    31    17    32 1   
    32    18    19 1   
    33    19    20 1   
    34    19    33 1   
    35    20    34 1   
    36    20    35 1   
@<TRIPOS>SUBSTRUCTURE
     1 8EP         1 TEMP              0 ****  ****    0 ROOT
