@<TRIPOS>MOLECULE
8EP
   35    36     1     0     0
SMALL
No Charge or Current Charge


@<TRIPOS>ATOM
      1 OAC          0.3010     1.6530     1.4220 o          1 8EP      -0.727500
      2 CAN         -0.3040     1.6780     0.3560 c          1 8EP       0.739000
      3 OAE         -0.9190     2.6780     0.0000 o          1 8EP      -0.727500
      4 CAT         -0.3500     0.3700    -0.5480 c5         1 8EP       0.040000
      5 CB          -1.8220    -0.0620    -0.8510 c3         1 8EP      -0.083400
      6 CA          -2.7550    -0.2810     0.3750 c3         1 8EP       0.039500
      7 N           -2.2370    -1.4200     1.2130 n8         1 8EP      -0.991200
      8 C           -4.2740    -0.3700    -0.0770 c          1 8EP       0.718000
      9 O           -4.6450    -1.3560    -0.7050 o          1 8EP      -0.762500
     10 OXT         -5.0430     0.5110     0.2850 o          1 8EP      -0.762500
     11 OAL          0.3600    -0.7350     0.1050 os         1 8EP      -0.417000
     12 CAS          1.5610    -1.0640    -0.6380 c5         1 8EP       0.158300
     13 CAQ          2.7190    -1.5380     0.2940 c6         1 8EP       0.167300
     14 OAG          3.7610    -2.1680    -0.4890 oh         1 8EP      -0.733000
     15 CAP          3.2990    -0.3320     1.1060 c6         1 8EP       0.118300
     16 OAF          2.3790     0.1090     2.1220 oh         1 8EP      -0.652000
     17 CAH          3.6450     0.8400     0.1390 c6         1 8EP       0.133600
     18 OAK          2.4960     1.2360    -0.6420 os         1 8EP      -0.406000
     19 CAR          1.8900     0.2070    -1.4740 c5         1 8EP       0.127300
     20 CAJ          0.4650     0.6570    -1.8610 c5         1 8EP      -0.086400
     21 HB          -2.2830     0.7080    -1.4820 hc         1 8EP       0.028700
     22 HBA         -1.8190    -0.9740    -1.4610 hc         1 8EP       0.028700
     23 HA          -2.6890     0.6250     0.9940 h1         1 8EP       0.069700
     24 HN          -2.4350    -2.2950     0.7160 hn         1 8EP       0.383000
     25 HNA         -1.2090    -1.3620     1.1830 hn         1 8EP       0.383000
     26 HAS          1.3030    -1.8910    -1.3120 h1         1 8EP       0.031700
     27 HAQ          2.3070    -2.2700     1.0050 h1         1 8EP       0.066700
     28 HOAG         4.4050    -2.5480     0.1520 ho         1 8EP       0.479000
     29 HAP          4.2260    -0.6590     1.5980 h1         1 8EP      -0.020300
     30 HOAF         1.6400     0.6090     1.6650 ho         1 8EP       0.490000
     31 HAH          4.0010     1.7080     0.7110 h1         1 8EP       0.021200
     32 HAHA         4.4500     0.5380    -0.5460 h1         1 8EP       0.021200
     33 HAR          2.5360     0.0030    -2.3390 h1         1 8EP       0.015700
     34 HAJ          0.0920     0.0600    -2.7020 hc         1 8EP       0.054200
     35 HAJA         0.4250     1.7050    -2.1780 hc         1 8EP       0.054200
@<TRIPOS>BOND
     1     1     2 1   
     2     2     3 1   
     3     2     4 1   
     4     4     5 1   
     5     4    11 1   
     6     4    20 1   
     7     5     6 1   
     8     5    21 1   
     9     5    22 1   
    10     6     7 1   
    11     6     8 1   
    12     6    23 1   
    13     7    24 1   
    14     7    25 1   
    15     8     9 1   
    16     8    10 1   
    17    11    12 1   
    18    12    13 1   
    19    12    19 1   
    20    12    26 1   
    21    13    14 1   
    22    13    15 1   
    23    13    27 1   
    24    14    28 1   
    25    15    16 1   
    26    15    17 1   
    27    15    29 1   
    28    16    30 1   
    29    17    18 1   
    30    17    31 1   
    31    17    32 1   
    32    18    19 1   
    33    19    20 1   
    34    19    33 1   
    35    20    34 1   
    36    20    35 1   
@<TRIPOS>SUBSTRUCTURE
     1 8EP         1 TEMP              0 ****  ****    0 ROOT
