@<TRIPOS>MOLECULE
8EQ
   30    31     1     0     0
SMALL
abcg2


@<TRIPOS>ATOM
      1 C4          -0.5960     1.5050     0.1020 ca         1 8EQ       0.078100
      2 C5           1.4420     2.3240     0.3300 c          1 8EQ       0.677100
      3 C6           2.7450     0.2340     0.6960 c3         1 8EQ       0.133000
      4 C7           3.2750    -0.3600    -0.5970 c3         1 8EQ      -0.239400
      5 C8           4.5720    -1.1720    -0.4200 c          1 8EQ       0.725000
      6 C10         -0.2430    -0.8480     0.3970 ca         1 8EQ      -0.052000
      7 CL          -2.2830    -2.5950     0.2570 cl         1 8EQ      -0.194000
      8 C11         -1.6090    -1.0040     0.2010 ca         1 8EQ       0.080000
      9 C2          -2.4710     0.0760    -0.0420 ca         1 8EQ       0.134100
     10 O           -3.7670    -0.2150    -0.2130 os         1 8EQ      -0.336100
     11 C1          -4.6810     0.8440    -0.4750 c3         1 8EQ       0.166600
     12 C           -6.0570     0.2450    -0.6300 c3         1 8EQ      -0.093100
     13 C9           0.2500     0.4390     0.3420 ca         1 8EQ      -0.017400
     14 C3          -1.9490     1.3730    -0.0930 ca         1 8EQ      -0.177000
     15 N            1.5140     0.9790     0.4960 n          1 8EQ      -0.293000
     16 O2           2.3170     3.1490     0.3670 o          1 8EQ      -0.516000
     17 O1           0.1340     2.6520     0.0980 os         1 8EQ      -0.306200
     18 O4           5.0470    -1.2400     0.7310 o          1 8EQ      -0.730500
     19 O3           5.0380    -1.6890    -1.4530 o          1 8EQ      -0.730500
     20 H1           2.5450    -0.5410     1.4360 h1         1 8EQ       0.069200
     21 H2           3.4680     0.9120     1.1440 h1         1 8EQ       0.069200
     22 H3           2.5170    -1.0040    -1.0560 hc         1 8EQ       0.031700
     23 H4           3.4560     0.4410    -1.3220 hc         1 8EQ       0.031700
     24 H5           0.3910    -1.7040     0.5810 ha         1 8EQ       0.158000
     25 H6          -4.6670     1.5650     0.3490 h1         1 8EQ       0.033700
     26 H7          -4.3890     1.3750    -1.3870 h1         1 8EQ       0.033700
     27 H8          -6.0950    -0.4610    -1.4600 hc         1 8EQ       0.044700
     28 H9          -6.3750    -0.2660     0.2790 hc         1 8EQ       0.044700
     29 H10         -6.7730     1.0410    -0.8340 hc         1 8EQ       0.044700
     30 H11         -2.5680     2.2410    -0.2710 ha         1 8EQ       0.132000
@<TRIPOS>BOND
     1     1    13 ar  
     2     1    14 ar  
     3     1    17 1   
     4     2    15 1   
     5     2    16 2   
     6     2    17 1   
     7     3     4 1   
     8     3    15 1   
     9     3    20 1   
    10     3    21 1   
    11     4     5 1   
    12     4    22 1   
    13     4    23 1   
    14     5    18 1   
    15     5    19 1   
    16     6     8 ar  
    17     6    13 ar  
    18     6    24 1   
    19     7     8 1   
    20     8     9 ar  
    21     9    10 1   
    22     9    14 ar  
    23    10    11 1   
    24    11    12 1   
    25    11    25 1   
    26    11    26 1   
    27    12    27 1   
    28    12    28 1   
    29    12    29 1   
    30    13    15 1   
    31    14    30 1   
@<TRIPOS>SUBSTRUCTURE
     1 8EQ         1 TEMP              0 ****  ****    0 ROOT
