@<TRIPOS>MOLECULE
8EQ
   30    31     1     0     0
SMALL
No Charge or Current Charge


@<TRIPOS>ATOM
      1 C4          -0.5510     1.4990     0.1590 ca         1 8EQ       0.078100
      2 C5           1.4770     2.3560     0.6450 c          1 8EQ       0.677100
      3 C6           2.7980     0.1840     0.6950 c3         1 8EQ       0.133000
      4 C7           3.2510    -0.3300    -0.6850 c3         1 8EQ      -0.239400
      5 C8           4.5590    -1.1020    -0.5100 c          1 8EQ       0.725000
      6 C10         -0.2210    -0.8910     0.3550 ca         1 8EQ      -0.052000
      7 Cl          -2.2600    -2.7050     0.1350 cl         1 8EQ      -0.194000
      8 C11         -1.6030    -1.0670     0.1230 ca         1 8EQ       0.080000
      9 C2          -2.4580     0.0530    -0.0940 ca         1 8EQ       0.134100
     10 O           -3.8060    -0.1770    -0.3050 os         1 8EQ      -0.336100
     11 C1          -4.7430     0.8900    -0.5280 c3         1 8EQ       0.166600
     12 C           -6.1270     0.2550    -0.7350 c3         1 8EQ      -0.093100
     13 C9           0.2810     0.4130     0.2990 ca         1 8EQ      -0.017400
     14 C3          -1.9250     1.3690    -0.0550 ca         1 8EQ      -0.177000
     15 N            1.5410     0.9500     0.6380 n          1 8EQ      -0.293000
     16 O2           2.3930     3.1510     0.8060 o          1 8EQ      -0.516000
     17 O1           0.1660     2.6520     0.3350 os         1 8EQ      -0.306200
     18 O4           5.6060    -0.4770    -0.5670 o          1 8EQ      -0.730500
     19 O3           4.4910    -2.2940    -0.2600 o          1 8EQ      -0.730500
     20 H1           2.6550    -0.6670     1.3740 h1         1 8EQ       0.069200
     21 H2           3.5860     0.8170     1.1260 h1         1 8EQ       0.069200
     22 H3           2.4550    -0.9920    -1.0450 hc         1 8EQ       0.031700
     23 H4           3.4040     0.5620    -1.3050 hc         1 8EQ       0.031700
     24 H5           0.4260    -1.7400     0.5590 ha         1 8EQ       0.158000
     25 H6          -4.7770     1.5650     0.3370 h1         1 8EQ       0.033700
     26 H7          -4.4690     1.4690    -1.4200 h1         1 8EQ       0.033700
     27 H8          -6.1180    -0.4160    -1.6020 hc         1 8EQ       0.044700
     28 H9          -6.4250    -0.3190     0.1500 hc         1 8EQ       0.044700
     29 H10         -6.8790     1.0330    -0.9090 hc         1 8EQ       0.044700
     30 H11         -2.5400     2.2560    -0.1650 ha         1 8EQ       0.132000
@<TRIPOS>BOND
     1     1    13 ar  
     2     1    14 ar  
     3     1    17 1   
     4     2    15 1   
     5     2    16 2   
     6     2    17 1   
     7     3     4 1   
     8     3    15 1   
     9     3    20 1   
    10     3    21 1   
    11     4     5 1   
    12     4    22 1   
    13     4    23 1   
    14     5    18 1   
    15     5    19 1   
    16     6     8 ar  
    17     6    13 ar  
    18     6    24 1   
    19     7     8 1   
    20     8     9 ar  
    21     9    10 1   
    22     9    14 ar  
    23    10    11 1   
    24    11    12 1   
    25    11    25 1   
    26    11    26 1   
    27    12    27 1   
    28    12    28 1   
    29    12    29 1   
    30    13    15 1   
    31    14    30 1   
@<TRIPOS>SUBSTRUCTURE
     1 8EQ         1 TEMP              0 ****  ****    0 ROOT
