@<TRIPOS>MOLECULE
8ES
   75    81     1     0     0
SMALL
bcc


@<TRIPOS>ATOM
      1 N1           0.4720     1.8010     0.1950 n          1 8ES      -0.403300
      2 N3           8.5050     0.8300    -2.2780 na         1 8ES       0.155900
      3 C4           0.8130     2.3710     3.9350 c3         1 8ES      -0.075100
      4 C5          -0.4530     1.3640    -0.7470 c          1 8ES       0.717100
      5 C6           1.7880     2.2130    -0.2940 c3         1 8ES       0.130300
      6 C7           2.8610     1.1740    -0.0930 ca         1 8ES      -0.105300
      7 C8           4.1420     1.5790     0.2690 ca         1 8ES      -0.115500
      8 C10          4.9260    -0.7030     0.2340 cp         1 8ES      -0.025000
      9 C13          7.5480    -0.5810    -1.1660 cc         1 8ES       0.549500
     10 C15          8.0140    -3.5470     1.0580 ca         1 8ES      -0.130000
     11 C17          5.7690    -2.7480     1.3440 ca         1 8ES      -0.125000
     12 C20         -3.1520     0.5990     1.7270 ca         1 8ES      -0.119000
     13 C21         -4.1510     0.1550     0.8960 ca         1 8ES      -0.086000
     14 C22         -3.9700     0.1440    -0.4950 ca         1 8ES       0.003600
     15 C24         -6.1990     0.3430    -1.4800 c          1 8ES       0.723700
     16 C26         -7.5290     2.3820    -0.9380 cc         1 8ES      -0.086000
     17 C28         -6.1320     4.1490    -0.4570 cd         1 8ES      -0.115100
     18 O1          -7.1720    -0.1910    -1.9910 o          1 8ES      -0.593100
     19 C25         -6.3140     1.7540    -1.0380 cd         1 8ES      -0.153700
     20 S           -5.0340     2.8710    -0.7120 ss         1 8ES      -0.028800
     21 C27         -7.4290     3.7480    -0.5960 cc         1 8ES      -0.166000
     22 N6          -5.0140    -0.3100    -1.3380 n          1 8ES      -0.396000
     23 C29         -4.8620    -1.6730    -1.8520 c3         1 8ES       0.149300
     24 C30         -4.9120    -2.6930    -0.7470 ca         1 8ES      -0.117300
     25 C35         -6.1290    -3.0570    -0.1740 ca         1 8ES      -0.111000
     26 C34         -6.1710    -3.9620     0.8770 ca         1 8ES      -0.133500
     27 C33         -4.9950    -4.5150     1.3690 ca         1 8ES      -0.122000
     28 C32         -3.7780    -4.1590     0.8040 ca         1 8ES      -0.133500
     29 C31         -3.7400    -3.2510    -0.2470 ca         1 8ES      -0.111000
     30 C1          -1.9270     1.0190     1.1890 ca         1 8ES       0.199400
     31 C23         -2.7620     0.5240    -1.0360 ca         1 8ES      -0.055000
     32 C           -1.7370     0.9610    -0.1950 ca         1 8ES      -0.208600
     33 O           -0.1810     1.3210    -1.9330 o          1 8ES      -0.608500
     34 C2           0.1800     1.8380     1.5440 cc         1 8ES       0.519900
     35 C3           1.2400     2.3420     2.4790 c3         1 8ES      -0.118700
     36 N           -0.9490     1.4670     2.0330 nd         1 8ES      -0.638100
     37 C19          2.6230    -0.1830    -0.2860 ca         1 8ES      -0.115500
     38 C18          3.6420    -1.1080    -0.1180 ca         1 8ES      -0.108000
     39 C9           5.1620     0.6560     0.4290 ca         1 8ES      -0.108000
     40 C11          5.9970    -1.6980     0.4550 cp         1 8ES       0.001000
     41 C16          6.7620    -3.6670     1.6440 ca         1 8ES      -0.112000
     42 C14          8.2530    -2.5210     0.1590 ca         1 8ES      -0.098000
     43 C12          7.2540    -1.6020    -0.1570 ca         1 8ES      -0.109500
     44 N5           6.7410    -0.2510    -2.1920 nc         1 8ES      -0.360000
     45 N4           7.3690     0.6430    -2.8780 nd         1 8ES      -0.172800
     46 N2           8.6780     0.1000    -1.2100 nd         1 8ES      -0.517800
     47 H2           1.6400     2.7400     4.5420 hc         1 8ES       0.044033
     48 H3          -0.0400     3.0290     4.0930 hc         1 8ES       0.044033
     49 H4           0.5460     1.3800     4.2980 hc         1 8ES       0.044033
     50 H5           1.6810     2.4350    -1.3530 h1         1 8ES       0.077200
     51 H6           2.0720     3.1460     0.1880 h1         1 8ES       0.077200
     52 H7           4.3430     2.6290     0.4450 ha         1 8ES       0.133500
     53 H8           8.7990    -4.2540     1.2910 ha         1 8ES       0.137000
     54 H9           4.8040    -2.8250     1.8290 ha         1 8ES       0.138000
     55 H10         -3.2920     0.6260     2.7990 ha         1 8ES       0.156000
     56 H11         -5.0950    -0.1770     1.3090 ha         1 8ES       0.151000
     57 H12         -8.4670     1.8740    -1.1120 ha         1 8ES       0.169000
     58 H13         -5.7650     5.1320    -0.2040 h4         1 8ES       0.168000
     59 H14         -8.2770     4.4030    -0.4610 ha         1 8ES       0.155000
     60 H15         -5.6430    -1.8490    -2.5870 h1         1 8ES       0.070700
     61 H16         -3.9060    -1.7280    -2.3770 h1         1 8ES       0.070700
     62 H17         -7.0500    -2.6310    -0.5540 ha         1 8ES       0.138000
     63 H18         -7.1240    -4.2370     1.3110 ha         1 8ES       0.131000
     64 H19         -5.0280    -5.2220     2.1870 ha         1 8ES       0.129000
     65 H20         -2.8580    -4.5860     1.1800 ha         1 8ES       0.131000
     66 H21         -2.7860    -2.9730    -0.6810 ha         1 8ES       0.138000
     67 H22         -2.6140     0.5030    -2.1080 ha         1 8ES       0.165000
     68 H23          1.5420     3.3460     2.1660 hc         1 8ES       0.063700
     69 H24          2.1330     1.7200     2.3700 hc         1 8ES       0.063700
     70 H25          1.6400    -0.5390    -0.5710 ha         1 8ES       0.133500
     71 H26          3.4350    -2.1590    -0.2790 ha         1 8ES       0.136000
     72 H27          6.1420     1.0000     0.7360 ha         1 8ES       0.136000
     73 H28          6.5610    -4.4680     2.3430 ha         1 8ES       0.135000
     74 H29          9.2190    -2.4440    -0.3230 ha         1 8ES       0.142000
     75 H1           9.1940     1.4910    -2.6140 hn         1 8ES       0.355700
@<TRIPOS>BOND
     1     1     4 1   
     2     1     5 1   
     3     1    34 1   
     4     2    45 1   
     5     2    46 1   
     6     2    75 1   
     7     3    35 1   
     8     3    47 1   
     9     3    48 1   
    10     3    49 1   
    11     4    32 1   
    12     4    33 2   
    13     5     6 1   
    14     5    50 1   
    15     5    51 1   
    16     6     7 ar  
    17     6    37 ar  
    18     7    39 ar  
    19     7    52 1   
    20     8    38 ar  
    21     8    39 ar  
    22     8    40 1   
    23     9    43 1   
    24     9    44 1   
    25     9    46 2   
    26    10    41 ar  
    27    10    42 ar  
    28    10    53 1   
    29    11    40 ar  
    30    11    41 ar  
    31    11    54 1   
    32    12    13 ar  
    33    12    30 ar  
    34    12    55 1   
    35    13    14 ar  
    36    13    56 1   
    37    14    22 1   
    38    14    31 ar  
    39    15    18 2   
    40    15    19 1   
    41    15    22 1   
    42    16    19 2   
    43    16    21 1   
    44    16    57 1   
    45    17    20 1   
    46    17    21 2   
    47    17    58 1   
    48    19    20 1   
    49    21    59 1   
    50    22    23 1   
    51    23    24 1   
    52    23    60 1   
    53    23    61 1   
    54    24    25 ar  
    55    24    29 ar  
    56    25    26 ar  
    57    25    62 1   
    58    26    27 ar  
    59    26    63 1   
    60    27    28 ar  
    61    27    64 1   
    62    28    29 ar  
    63    28    65 1   
    64    29    66 1   
    65    30    32 ar  
    66    30    36 1   
    67    31    32 ar  
    68    31    67 1   
    69    34    35 1   
    70    34    36 2   
    71    35    68 1   
    72    35    69 1   
    73    37    38 ar  
    74    37    70 1   
    75    38    71 1   
    76    39    72 1   
    77    40    43 ar  
    78    41    73 1   
    79    42    43 ar  
    80    42    74 1   
    81    44    45 2   
@<TRIPOS>SUBSTRUCTURE
     1 8ES         1 TEMP              0 ****  ****    0 ROOT
