@<TRIPOS>MOLECULE
8ES
   75    81     1     0     0
SMALL
No Charge or Current Charge


@<TRIPOS>ATOM
      1 N1           0.4550     1.8620    -0.0260 n          1 8ES      -0.336300
      2 N3           8.7850     0.3270    -2.1270 na         1 8ES       0.105600
      3 C4           1.0460     3.0090     3.6630 c3         1 8ES      -0.075100
      4 C5          -0.5530     1.3180    -0.8280 c          1 8ES       0.574600
      5 C6           1.7790     2.1250    -0.6630 c3         1 8ES       0.130300
      6 C7           2.8480     1.0870    -0.3280 ca         1 8ES      -0.105300
      7 C8           4.1140     1.4970     0.1330 ca         1 8ES      -0.097500
      8 C10          4.8460    -0.8400     0.2990 cp         1 8ES      -0.025000
      9 C13          7.6620    -0.9000    -0.9270 cc         1 8ES       0.549500
     10 C15          7.7850    -3.7620     1.5340 ca         1 8ES      -0.112000
     11 C17          5.5440    -2.8490     1.6070 ca         1 8ES      -0.107000
     12 C20         -3.2030     1.1630     1.8330 ca         1 8ES      -0.101000
     13 C21         -4.2930     0.6190     1.1350 ca         1 8ES      -0.068000
     14 C22         -4.1550     0.2370    -0.2140 ca         1 8ES      -0.089000
     15 C24         -6.6220     0.3240    -0.8250 c          1 8ES       0.656700
     16 C26         -7.9890     2.3370    -0.1900 cc         1 8ES      -0.068000
     17 C28         -6.6870     4.2720    -0.1690 cd         1 8ES      -0.242000
     18 O1          -7.6120    -0.3730    -1.0240 o          1 8ES      -0.593100
     19 C25         -6.7690     1.7650    -0.4630 cd         1 8ES      -0.298600
     20 S           -5.4990     3.0110    -0.5410 ss         1 8ES       0.261000
     21 C27         -7.9390     3.7410    -0.0120 cc         1 8ES      -0.148000
     22 N6          -5.3050    -0.2000    -0.9690 n          1 8ES      -0.236400
     23 C29         -5.1240    -1.3950    -1.8320 c3         1 8ES       0.149300
     24 C30         -4.7140    -2.6400    -1.0520 ca         1 8ES      -0.117300
     25 C35         -5.6840    -3.3890    -0.3560 ca         1 8ES      -0.093000
     26 C34         -5.3080    -4.5310     0.3730 ca         1 8ES      -0.115500
     27 C33         -3.9620    -4.9300     0.4110 ca         1 8ES      -0.104000
     28 C32         -2.9900    -4.1850    -0.2790 ca         1 8ES      -0.115500
     29 C31         -3.3650    -3.0430    -1.0080 ca         1 8ES      -0.093000
     30 C1          -1.9700     1.3790     1.1970 ca         1 8ES       0.199400
     31 C23         -2.9370     0.5140    -0.8680 ca         1 8ES      -0.037000
     32 C           -1.8450     1.0610    -0.1580 ca         1 8ES      -0.208600
     33 O           -0.3910     1.0580    -2.0140 o          1 8ES      -0.533000
     34 C2           0.2230     2.1310     1.3320 cc         1 8ES       0.519900
     35 C3           1.3560     2.7130     2.1720 c3         1 8ES      -0.118700
     36 N           -0.9370     1.9210     1.9640 nd         1 8ES      -0.638100
     37 C19          2.5830    -0.2890    -0.4750 ca         1 8ES      -0.097500
     38 C18          3.5690    -1.2390    -0.1590 ca         1 8ES      -0.090000
     39 C9           5.0970     0.5450     0.4480 ca         1 8ES      -0.090000
     40 C11          5.8820    -1.8560     0.6550 cp         1 8ES       0.001000
     41 C16          6.4820    -3.7950     2.0420 ca         1 8ES      -0.094000
     42 C14          8.1430    -2.7940     0.5820 ca         1 8ES      -0.080000
     43 C12          7.2070    -1.8390     0.1150 ca         1 8ES      -0.109500
     44 N5           6.8390    -0.5080    -1.9420 nc         1 8ES      -0.360000
     45 N4           7.5420     0.2810    -2.7040 nd         1 8ES      -0.172800
     46 N2           8.8900    -0.4320    -0.9890 nd         1 8ES      -0.517800
     47 H2           1.9320     3.4210     4.1600 hc         1 8ES       0.044033
     48 H3           0.2340     3.7400     3.7580 hc         1 8ES       0.044033
     49 H4           0.7570     2.0930     4.1930 hc         1 8ES       0.044033
     50 H5           1.6820     2.1730    -1.7550 h1         1 8ES       0.077200
     51 H6           2.1280     3.1230    -0.3690 h1         1 8ES       0.077200
     52 H7           4.3370     2.5550     0.2540 ha         1 8ES       0.115500
     53 H8           8.5190    -4.4910     1.8710 ha         1 8ES       0.119000
     54 H9           4.5410    -2.8680     2.0270 ha         1 8ES       0.120000
     55 H10         -3.3180     1.4260     2.8810 ha         1 8ES       0.138000
     56 H11         -5.2380     0.4750     1.6530 ha         1 8ES       0.133000
     57 H12         -8.9240     1.7850    -0.1270 ha         1 8ES       0.151000
     58 H13         -6.3790     5.3080    -0.0950 h4         1 8ES       0.150000
     59 H14         -8.8260     4.3280     0.2120 ha         1 8ES       0.137000
     60 H15         -6.0440    -1.6120    -2.3890 h1         1 8ES       0.070700
     61 H16         -4.3630    -1.1740    -2.5890 h1         1 8ES       0.070700
     62 H17         -6.7280    -3.0840    -0.3780 ha         1 8ES       0.120000
     63 H18         -6.0610    -5.1050     0.9080 ha         1 8ES       0.113000
     64 H19         -3.6710    -5.8130     0.9760 ha         1 8ES       0.111000
     65 H20         -1.9470    -4.4920    -0.2480 ha         1 8ES       0.113000
     66 H21         -2.6040    -2.4710    -1.5360 ha         1 8ES       0.120000
     67 H22         -2.8350     0.3060    -1.9300 ha         1 8ES       0.147000
     68 H23          1.6950     3.6520     1.7210 hc         1 8ES       0.063700
     69 H24          2.2060     2.0230     2.1520 hc         1 8ES       0.063700
     70 H25          1.6140    -0.6270    -0.8340 ha         1 8ES       0.115500
     71 H26          3.3470    -2.2970    -0.2780 ha         1 8ES       0.118000
     72 H27          6.0640     0.8800     0.8150 ha         1 8ES       0.118000
     73 H28          6.2010    -4.5450     2.7790 ha         1 8ES       0.117000
     74 H29          9.1580    -2.8030     0.1890 ha         1 8ES       0.124000
     75 H1           9.5520     0.8740    -2.5210 hn         1 8ES       0.406000
@<TRIPOS>BOND
     1     1     4 1   
     2     1     5 1   
     3     1    34 1   
     4     2    45 1   
     5     2    46 1   
     6     2    75 1   
     7     3    35 1   
     8     3    47 1   
     9     3    48 1   
    10     3    49 1   
    11     4    32 1   
    12     4    33 2   
    13     5     6 1   
    14     5    50 1   
    15     5    51 1   
    16     6     7 ar  
    17     6    37 ar  
    18     7    39 ar  
    19     7    52 1   
    20     8    38 ar  
    21     8    39 ar  
    22     8    40 1   
    23     9    43 1   
    24     9    44 1   
    25     9    46 2   
    26    10    41 ar  
    27    10    42 ar  
    28    10    53 1   
    29    11    40 ar  
    30    11    41 ar  
    31    11    54 1   
    32    12    13 ar  
    33    12    30 ar  
    34    12    55 1   
    35    13    14 ar  
    36    13    56 1   
    37    14    22 1   
    38    14    31 ar  
    39    15    18 2   
    40    15    19 1   
    41    15    22 1   
    42    16    19 2   
    43    16    21 1   
    44    16    57 1   
    45    17    20 1   
    46    17    21 2   
    47    17    58 1   
    48    19    20 1   
    49    21    59 1   
    50    22    23 1   
    51    23    24 1   
    52    23    60 1   
    53    23    61 1   
    54    24    25 ar  
    55    24    29 ar  
    56    25    26 ar  
    57    25    62 1   
    58    26    27 ar  
    59    26    63 1   
    60    27    28 ar  
    61    27    64 1   
    62    28    29 ar  
    63    28    65 1   
    64    29    66 1   
    65    30    32 ar  
    66    30    36 1   
    67    31    32 ar  
    68    31    67 1   
    69    34    35 1   
    70    34    36 2   
    71    35    68 1   
    72    35    69 1   
    73    37    38 ar  
    74    37    70 1   
    75    38    71 1   
    76    39    72 1   
    77    40    43 ar  
    78    41    73 1   
    79    42    43 ar  
    80    42    74 1   
    81    44    45 2   
@<TRIPOS>SUBSTRUCTURE
     1 8ES         1 TEMP              0 ****  ****    0 ROOT
