@<TRIPOS>MOLECULE
8ET
   30    32     1     0     0
SMALL
No Charge or Current Charge


@<TRIPOS>ATOM
      1 C4          -1.8010     1.5850    -0.1180 ca         1 8ET      -0.063000
      2 C5          -2.8740     2.4840    -0.1940 ca         1 8ET      -0.166000
      3 C6          -4.1840     1.9940    -0.1190 ca         1 8ET       0.354900
      4 C7          -1.0350    -0.7550     0.1120 ca         1 8ET      -0.026000
      5 C8          -1.3690    -2.1170     0.2710 ca         1 8ET      -0.101000
      6 N2           3.9010     1.8670     0.4600 nb         1 8ET      -0.669000
      7 C9           1.5000    -1.0030    -0.2420 c          1 8ET       0.623700
      8 C10          2.7780    -0.2150    -0.1070 ca         1 8ET      -0.211600
      9 C11          4.0210    -0.8120    -0.4120 ca         1 8ET      -0.020000
     10 C12          5.1870    -0.0440    -0.2720 ca         1 8ET      -0.171000
     11 C13          5.0840     1.2850     0.1640 ca         1 8ET       0.355900
     12 C14          2.7760     1.1270     0.3250 ca         1 8ET       0.358900
     13 O            1.5200    -2.1680    -0.6210 o          1 8ET      -0.570100
     14 C           -2.7100    -2.5210     0.3330 ca         1 8ET      -0.088000
     15 C3          -2.0790     0.2060     0.0340 ca         1 8ET      -0.096000
     16 N           -4.4660     0.6810     0.0230 nb         1 8ET      -0.659000
     17 C2          -3.4410    -0.2030     0.0980 ca         1 8ET       0.279000
     18 C1          -3.7350    -1.5690     0.2440 ca         1 8ET      -0.090000
     19 H2          -0.7860     1.9680    -0.1830 ha         1 8ET       0.115000
     20 H3          -2.6990     3.5500    -0.3110 ha         1 8ET       0.125000
     21 H4          -5.0350     2.6720    -0.1760 h4         1 8ET       0.020100
     22 H6           0.4530     0.6420     0.3210 hn         1 8ET       0.158000
     23 H5          -0.6000    -2.8780     0.3680 ha         1 8ET       0.131000
     24 H7           4.0850    -1.8450    -0.7500 ha         1 8ET       0.143000
     25 H8           6.1610    -0.4680    -0.4980 ha         1 8ET       0.131000
     26 H9           5.9740     1.9020     0.2800 h4         1 8ET       0.024100
     27 H10          1.8520     1.6450     0.5780 h4         1 8ET       0.019100
     28 H           -2.9560    -3.5730     0.4560 ha         1 8ET       0.121000
     29 H1          -4.7710    -1.8910     0.2950 ha         1 8ET       0.135000
     30 N1           0.3240    -0.3270     0.0660 ns         1 8ET      -0.164000
@<TRIPOS>BOND
     1     1     2 ar  
     2     1    15 ar  
     3     1    19 1   
     4     2     3 ar  
     5     2    20 1   
     6     3    16 ar  
     7     3    21 1   
     8     4     5 ar  
     9     4    15 ar  
    10     4    30 1   
    11     5    14 ar  
    12     5    23 1   
    13     6    11 ar  
    14     6    12 ar  
    15     7     8 1   
    16     7    13 2   
    17     7    30 1   
    18     8     9 ar  
    19     8    12 ar  
    20     9    10 ar  
    21     9    24 1   
    22    10    11 ar  
    23    10    25 1   
    24    11    26 1   
    25    12    27 1   
    26    14    18 ar  
    27    14    28 1   
    28    15    17 ar  
    29    16    17 ar  
    30    17    18 ar  
    31    18    29 1   
    32    22    30 1   
@<TRIPOS>SUBSTRUCTURE
     1 8ET         1 TEMP              0 ****  ****    0 ROOT
