@<TRIPOS>MOLECULE
8ET
   30    32     1     0     0
SMALL
bcc


@<TRIPOS>ATOM
      1 C4          -1.8040     1.5480    -0.4530 ca         1 8ET      -0.081000
      2 C5          -2.8710     2.3290    -0.7970 ca         1 8ET      -0.249300
      3 C6          -4.1680     1.7870    -0.6970 ca         1 8ET       0.420200
      4 C7          -0.9900    -0.6590     0.3850 ca         1 8ET       0.066600
      5 C8          -1.2860    -1.9450     0.7580 ca         1 8ET      -0.119000
      6 N2           4.2200     1.1300     1.3370 nb         1 8ET      -0.669000
      7 C9           1.3780    -0.7970    -0.2100 c          1 8ET       0.690700
      8 C10          2.7070    -0.1520    -0.0050 ca         1 8ET      -0.276900
      9 C11          3.6960    -0.3280    -0.9690 ca         1 8ET      -0.038000
     10 C12          4.9340     0.2550    -0.7690 ca         1 8ET      -0.254300
     11 C13          5.1450     0.9770     0.3980 ca         1 8ET       0.421200
     12 C14          3.0320     0.5780     1.1350 ca         1 8ET       0.424200
     13 O            1.2590    -1.7970    -0.8930 o          1 8ET      -0.570100
     14 C           -2.6190    -2.3960     0.7610 ca         1 8ET      -0.106000
     15 C3          -2.0300     0.2260    -0.0090 ca         1 8ET      -0.161300
     16 N           -4.4160     0.5650    -0.3100 nb         1 8ET      -0.659000
     17 C2          -3.3730    -0.2300     0.0290 ca         1 8ET       0.409600
     18 C1          -3.6450    -1.5610     0.4160 ca         1 8ET      -0.173300
     19 H2          -0.7990     1.9390    -0.5370 ha         1 8ET       0.133000
     20 H3          -2.7340     3.3430    -1.1450 ha         1 8ET       0.143000
     21 H4          -5.0240     2.4000    -0.9590 h4         1 8ET       0.020100
     22 H6           0.4910     0.7160     0.8310 hn         1 8ET       0.324500
     23 H5          -0.4990    -2.6160     1.0730 ha         1 8ET       0.149000
     24 H7           3.4950    -0.9040    -1.8620 ha         1 8ET       0.161000
     25 H8           5.7250     0.1510    -1.4980 ha         1 8ET       0.149000
     26 H9           6.1040     1.4480     0.5820 h4         1 8ET       0.024100
     27 H10          2.3130     0.7060     1.9380 h4         1 8ET       0.019100
     28 H           -2.8260    -3.4150     1.0580 ha         1 8ET       0.139000
     29 H1          -4.6740    -1.8950     0.4340 ha         1 8ET       0.153000
     30 N1           0.3340    -0.1840     0.4040 ns         1 8ET      -0.490100
@<TRIPOS>BOND
     1     1     2 ar  
     2     1    15 ar  
     3     1    19 1   
     4     2     3 ar  
     5     2    20 1   
     6     3    16 ar  
     7     3    21 1   
     8     4     5 ar  
     9     4    15 ar  
    10     4    30 1   
    11     5    14 ar  
    12     5    23 1   
    13     6    11 ar  
    14     6    12 ar  
    15     7     8 1   
    16     7    13 2   
    17     7    30 1   
    18     8     9 ar  
    19     8    12 ar  
    20     9    10 ar  
    21     9    24 1   
    22    10    11 ar  
    23    10    25 1   
    24    11    26 1   
    25    12    27 1   
    26    14    18 ar  
    27    14    28 1   
    28    15    17 ar  
    29    16    17 ar  
    30    17    18 ar  
    31    18    29 1   
    32    22    30 1   
@<TRIPOS>SUBSTRUCTURE
     1 8ET         1 TEMP              0 ****  ****    0 ROOT
