@<TRIPOS>MOLECULE
8EU
   27    27     1     0     0
SMALL
abcg2


@<TRIPOS>ATOM
      1 C5           1.6450    -1.4040    -0.8190 ca         1 8EU      -0.118000
      2 C6           2.9800    -1.1260    -0.6020 ca         1 8EU      -0.055000
      3 N1           4.7190     0.3590     0.2820 no         1 8EU       0.699200
      4 C4           0.6470    -0.5200    -0.4070 ca         1 8EU      -0.005300
      5 C3           1.0150     0.6580     0.2350 ca         1 8EU      -0.118000
      6 O3          -3.6130     0.2890    -1.5500 o          1 8EU      -0.824000
      7 C2           2.3490     0.9520     0.4640 ca         1 8EU      -0.055000
      8 C7          -0.7870    -0.8590    -0.6960 c3         1 8EU       0.255900
      9 C8          -3.8340     0.9660     1.0990 c3         1 8EU      -0.431400
     10 C1           3.3190     0.0570     0.0420 ca         1 8EU      -0.204200
     11 C9          -5.3570     1.0380     1.1650 c3         1 8EU      -0.052100
     12 O1           4.9910     1.3940     0.8460 o          1 8EU      -0.423000
     13 O4          -3.6970    -1.6230     0.2040 o          1 8EU      -0.824000
     14 P1          -3.2870    -0.2230    -0.1700 p5         1 8EU       1.397400
     15 O5          -1.6450    -0.0680     0.0800 os         1 8EU      -0.601400
     16 O2           5.5470    -0.4380    -0.0950 o          1 8EU      -0.423000
     17 H1           1.3730    -2.3270    -1.3150 ha         1 8EU       0.138500
     18 H2           3.7360    -1.8260    -0.9270 ha         1 8EU       0.137500
     19 H3           0.2600     1.3570     0.5670 ha         1 8EU       0.138500
     20 H4           2.6160     1.8710     0.9660 ha         1 8EU       0.137500
     21 H5          -0.9620    -0.7040    -1.7700 h1         1 8EU       0.043200
     22 H6          -0.9420    -1.9280    -0.5090 h1         1 8EU       0.043200
     23 H7          -3.4230     1.9530     0.8730 hc         1 8EU       0.045200
     24 H8          -3.4320     0.6710     2.0710 hc         1 8EU       0.045200
     25 H9          -5.7880     0.0780     1.4500 hc         1 8EU       0.019033
     26 H10         -5.6830     1.7780     1.8970 hc         1 8EU       0.019033
     27 H11         -5.7830     1.3190     0.2010 hc         1 8EU       0.019033
@<TRIPOS>BOND
     1     1     2 ar  
     2     1     4 ar  
     3     1    17 1   
     4     2    10 ar  
     5     2    18 1   
     6     3    10 1   
     7     3    12 1   
     8     3    16 1   
     9     4     5 ar  
    10     4     8 1   
    11     5     7 ar  
    12     5    19 1   
    13     6    14 1   
    14     7    10 ar  
    15     7    20 1   
    16     8    15 1   
    17     8    21 1   
    18     8    22 1   
    19     9    11 1   
    20     9    14 1   
    21     9    23 1   
    22     9    24 1   
    23    11    25 1   
    24    11    26 1   
    25    11    27 1   
    26    13    14 1   
    27    14    15 1   
@<TRIPOS>SUBSTRUCTURE
     1 8EU         1 TEMP              0 ****  ****    0 ROOT
