@<TRIPOS>MOLECULE
8EU
   27    27     1     0     0
SMALL
No Charge or Current Charge


@<TRIPOS>ATOM
      1 C5           1.2990    -1.3070    -0.1460 ca         1 8EU      -0.118000
      2 C6           2.6360    -1.2000     0.2750 ca         1 8EU      -0.055000
      3 N1           4.7580     0.1440     0.5860 no         1 8EU       0.699200
      4 C4           0.6350    -0.2020    -0.7100 ca         1 8EU      -0.005300
      5 C3           1.3230     1.0180    -0.8440 ca         1 8EU      -0.118000
      6 O3          -3.7010     0.9610    -1.3320 o          1 8EU      -0.824000
      7 C2           2.6600     1.1350    -0.4260 ca         1 8EU      -0.055000
      8 C7          -0.8150    -0.3240    -1.1670 c3         1 8EU       0.255900
      9 C8          -3.8070     0.4660     1.3600 c3         1 8EU      -0.431400
     10 C1           3.3320     0.0250     0.1380 ca         1 8EU      -0.204200
     11 C9          -5.3360     0.5410     1.5550 c3         1 8EU      -0.052100
     12 O1           5.3270     1.2350     0.4470 o          1 8EU      -0.423000
     13 O4          -3.7260    -1.4320    -0.6140 o          1 8EU      -0.824000
     14 P1          -3.2600    -0.0440    -0.3200 p5         1 8EU       1.397400
     15 O5          -1.6710     0.0130    -0.0730 os         1 8EU      -0.601400
     16 O2           5.3050    -0.8540     1.0740 o          1 8EU      -0.423000
     17 H1           0.7760    -2.2540    -0.0310 ha         1 8EU       0.138500
     18 H2           3.1220    -2.0730     0.7070 ha         1 8EU       0.137500
     19 H3           0.8190     1.8810    -1.2740 ha         1 8EU       0.138500
     20 H4           3.1660     2.0920    -0.5440 ha         1 8EU       0.137500
     21 H5          -0.9850     0.3480    -2.0180 h1         1 8EU       0.043200
     22 H6          -1.0030    -1.3510    -1.5080 h1         1 8EU       0.043200
     23 H7          -3.3570     1.4450     1.5590 hc         1 8EU       0.045200
     24 H8          -3.3750    -0.2490     2.0680 hc         1 8EU       0.045200
     25 H9          -5.7990    -0.4370     1.3750 hc         1 8EU       0.019033
     26 H10         -5.5770     0.8510     2.5790 hc         1 8EU       0.019033
     27 H11         -5.7810     1.2670     0.8640 hc         1 8EU       0.019033
@<TRIPOS>BOND
     1     1     2 ar  
     2     1     4 ar  
     3     1    17 1   
     4     2    10 ar  
     5     2    18 1   
     6     3    10 1   
     7     3    12 1   
     8     3    16 1   
     9     4     5 ar  
    10     4     8 1   
    11     5     7 ar  
    12     5    19 1   
    13     6    14 1   
    14     7    10 ar  
    15     7    20 1   
    16     8    15 1   
    17     8    21 1   
    18     8    22 1   
    19     9    11 1   
    20     9    14 1   
    21     9    23 1   
    22     9    24 1   
    23    11    25 1   
    24    11    26 1   
    25    11    27 1   
    26    13    14 1   
    27    14    15 1   
@<TRIPOS>SUBSTRUCTURE
     1 8EU         1 TEMP              0 ****  ****    0 ROOT
