@<TRIPOS>MOLECULE
8EV
   42    44     1     0     0
SMALL
No Charge or Current Charge


@<TRIPOS>ATOM
      1 C10         -3.8080    -0.1010     0.2800 ca         1 8EV       0.324000
      2 C22          2.5740     1.5850     0.2480 ca         1 8EV      -0.170000
      3 C23          3.9740     1.6020     0.4040 ca         1 8EV       0.015000
      4 N28          5.1630     3.7370     1.3150 n1         1 8EV      -0.455000
      5 C27          4.6330     2.7770     0.9100 cg         1 8EV       0.324000
      6 C24          4.7300     0.4640     0.0640 ca         1 8EV      -0.090000
      7 C25          4.0960    -0.6920    -0.4310 ca         1 8EV      -0.056300
      8 C29          4.9210    -1.9190    -0.7980 c3         1 8EV       0.202100
      9 N30          5.3150    -2.6630     0.4140 n7         1 8EV      -0.862400
     10 C31          6.1030    -3.8870     0.1700 c3         1 8EV       0.145100
     11 C21          1.9320     0.4290    -0.2460 ca         1 8EV       0.143100
     12 C26          2.6960    -0.7000    -0.5810 ca         1 8EV      -0.129000
     13 O12          0.5660     0.3540    -0.4190 os         1 8EV      -0.339100
     14 C11         -0.3110     1.4500    -0.1080 c3         1 8EV       0.208900
     15 C08         -1.7400     1.0260    -0.4150 ca         1 8EV      -0.074300
     16 C09         -2.4860     0.3060     0.5390 ca         1 8EV      -0.082000
     17 C07         -2.3270     1.3440    -1.6540 ca         1 8EV      -0.107000
     18 C06         -3.6440     0.9490    -1.9340 ca         1 8EV      -0.076000
     19 C05         -4.3840     0.2320    -0.9760 ca         1 8EV      -0.122000
     20 C04         -5.7050    -0.1630    -1.2550 ca         1 8EV      -0.030000
     21 C03         -6.3990    -0.8770    -0.2670 ca         1 8EV      -0.207000
     22 C02         -5.7380    -1.1540     0.9310 ca         1 8EV       0.620900
     23 N02         -6.2910    -1.8150     1.9480 nv         1 8EV      -1.070900
     24 N01         -4.4970    -0.7910     1.2210 nb         1 8EV      -0.760000
     25 H1           2.0050     2.4720     0.5150 ha         1 8EV       0.129000
     26 H2           5.8120     0.4720     0.1860 ha         1 8EV       0.146000
     27 H3           4.3330    -2.5620    -1.4690 h1         1 8EV       0.041700
     28 H4           5.8110    -1.5950    -1.3560 h1         1 8EV       0.041700
     29 H5           4.4550    -2.9270     0.9120 hn         1 8EV       0.413000
     30 H7           5.5360    -4.6030    -0.4400 h1         1 8EV       0.031700
     31 H8           7.0380    -3.6520    -0.3560 h1         1 8EV       0.031700
     32 H9           6.3600    -4.3760     1.1190 h1         1 8EV       0.031700
     33 H10          2.1940    -1.5860    -0.9610 ha         1 8EV       0.130000
     34 H11         -0.2310     1.7210     0.9530 h1         1 8EV       0.044700
     35 H12         -0.0530     2.3330    -0.7070 h1         1 8EV       0.044700
     36 H13         -2.0350     0.0540     1.4950 ha         1 8EV       0.129000
     37 H14         -1.7610     1.8960    -2.4020 ha         1 8EV       0.121000
     38 H15         -4.0880     1.2010    -2.8950 ha         1 8EV       0.113000
     39 H16         -6.1790     0.0740    -2.2050 ha         1 8EV       0.118000
     40 H17         -7.4200    -1.2070    -0.4290 ha         1 8EV       0.121000
     41 H18         -7.3040    -1.8180     2.0020 hn         1 8EV       0.480500
     42 H19         -5.7930    -1.7340     2.8260 hn         1 8EV       0.480500
@<TRIPOS>BOND
     1     1    16 ar  
     2     1    19 ar  
     3     1    24 ar  
     4     2     3 ar  
     5     2    11 ar  
     6     2    25 1   
     7     3     5 1   
     8     3     6 ar  
     9     4     5 3   
    10     6     7 ar  
    11     6    26 1   
    12     7     8 1   
    13     7    12 ar  
    14     8     9 1   
    15     8    27 1   
    16     8    28 1   
    17     9    10 1   
    18     9    29 1   
    19    10    30 1   
    20    10    31 1   
    21    10    32 1   
    22    11    12 ar  
    23    11    13 1   
    24    12    33 1   
    25    13    14 1   
    26    14    15 1   
    27    14    34 1   
    28    14    35 1   
    29    15    16 ar  
    30    15    17 ar  
    31    16    36 1   
    32    17    18 ar  
    33    17    37 1   
    34    18    19 ar  
    35    18    38 1   
    36    19    20 ar  
    37    20    21 ar  
    38    20    39 1   
    39    21    22 ar  
    40    21    40 1   
    41    22    23 1   
    42    22    24 ar  
    43    23    41 1   
    44    23    42 1   
@<TRIPOS>SUBSTRUCTURE
     1 8EV         1 TEMP              0 ****  ****    0 ROOT
