@<TRIPOS>MOLECULE
8EV
   42    44     1     0     0
SMALL
bcc


@<TRIPOS>ATOM
      1 C10         -4.0270     0.1150     0.3380 ca         1 8EV       0.454600
      2 C22          2.4160     1.2460     0.5730 ca         1 8EV      -0.188000
      3 C23          3.8020     1.2570     0.7430 ca         1 8EV       0.015000
      4 N28          4.8870     3.2750     1.9310 n1         1 8EV      -0.365800
      5 C27          4.4020     2.3740     1.4010 cg         1 8EV       0.234800
      6 C24          4.6090     0.2180     0.2990 ca         1 8EV      -0.108000
      7 C25          4.0210    -0.8710    -0.3380 ca         1 8EV      -0.056300
      8 C29          4.8640    -2.0030    -0.8640 c3         1 8EV       0.202100
      9 N30          6.0280    -2.2420    -0.0400 n7         1 8EV      -0.807200
     10 C31          6.8980    -3.2610    -0.5910 c3         1 8EV       0.145100
     11 C21          1.8380     0.1550    -0.0630 ca         1 8EV       0.143100
     12 C26          2.6460    -0.8940    -0.5080 ca         1 8EV      -0.147000
     13 O12          0.5190     0.0190    -0.2810 os         1 8EV      -0.315900
     14 C11         -0.3510     1.0610     0.1390 c3         1 8EV       0.185700
     15 C08         -1.7440     0.6820    -0.2600 ca         1 8EV      -0.074300
     16 C09         -2.7020     0.4520     0.6960 ca         1 8EV      -0.165300
     17 C07         -2.0730     0.5730    -1.6290 ca         1 8EV      -0.125000
     18 C06         -3.3490     0.2460    -2.0040 ca         1 8EV      -0.094000
     19 C05         -4.3450     0.0140    -1.0360 ca         1 8EV      -0.187300
     20 C04         -5.6850    -0.3190    -1.3620 ca         1 8EV      -0.048000
     21 C03         -6.5890    -0.5310    -0.3730 ca         1 8EV      -0.290300
     22 C02         -6.1640    -0.4100     0.9880 ca         1 8EV       0.686200
     23 N02         -7.0530    -0.6640     1.9780 nv         1 8EV      -0.960500
     24 N01         -4.9330    -0.0960     1.3200 nb         1 8EV      -0.760000
     25 H1           1.8320     2.0760     0.9430 ha         1 8EV       0.147000
     26 H2           5.6790     0.2490     0.4510 ha         1 8EV       0.164000
     27 H3           4.2310    -2.8940    -0.9920 h1         1 8EV       0.041700
     28 H4           5.2110    -1.7370    -1.8680 h1         1 8EV       0.041700
     29 H5           5.7270    -2.5260     0.8840 hn         1 8EV       0.357800
     30 H7           6.4010    -4.2230    -0.7780 h1         1 8EV       0.031700
     31 H8           7.3160    -2.9190    -1.5400 h1         1 8EV       0.031700
     32 H9           7.7300    -3.4410     0.0900 h1         1 8EV       0.031700
     33 H10          2.1760    -1.7440    -0.9900 ha         1 8EV       0.148000
     34 H11         -0.2880     1.2020     1.2230 h1         1 8EV       0.044700
     35 H12         -0.0640     2.0050    -0.3380 h1         1 8EV       0.044700
     36 H13         -2.4580     0.5290     1.7500 ha         1 8EV       0.147000
     37 H14         -1.3170     0.7570    -2.3810 ha         1 8EV       0.139000
     38 H15         -3.6060     0.1660    -3.0540 ha         1 8EV       0.131000
     39 H16         -5.9780    -0.4060    -2.4010 ha         1 8EV       0.136000
     40 H17         -7.6160    -0.7900    -0.5980 ha         1 8EV       0.139000
     41 H18         -8.0360    -0.6430     1.7720 hn         1 8EV       0.425300
     42 H19         -6.8000    -0.3990     2.9150 hn         1 8EV       0.425300
@<TRIPOS>BOND
     1     1    16 ar  
     2     1    19 ar  
     3     1    24 ar  
     4     2     3 ar  
     5     2    11 ar  
     6     2    25 1   
     7     3     5 1   
     8     3     6 ar  
     9     4     5 3   
    10     6     7 ar  
    11     6    26 1   
    12     7     8 1   
    13     7    12 ar  
    14     8     9 1   
    15     8    27 1   
    16     8    28 1   
    17     9    10 1   
    18     9    29 1   
    19    10    30 1   
    20    10    31 1   
    21    10    32 1   
    22    11    12 ar  
    23    11    13 1   
    24    12    33 1   
    25    13    14 1   
    26    14    15 1   
    27    14    34 1   
    28    14    35 1   
    29    15    16 ar  
    30    15    17 ar  
    31    16    36 1   
    32    17    18 ar  
    33    17    37 1   
    34    18    19 ar  
    35    18    38 1   
    36    19    20 ar  
    37    20    21 ar  
    38    20    39 1   
    39    21    22 ar  
    40    21    40 1   
    41    22    23 1   
    42    22    24 ar  
    43    23    41 1   
    44    23    42 1   
@<TRIPOS>SUBSTRUCTURE
     1 8EV         1 TEMP              0 ****  ****    0 ROOT
