@<TRIPOS>MOLECULE
8EW
   16    15     1     0     0
SMALL
No Charge or Current Charge


@<TRIPOS>ATOM
      1 C01          0.0990     1.8570    -0.0270 c3         1 8EW      -0.014900
      2 C02          0.0290     0.3940    -0.4540 c2         1 8EW      -0.068400
      3 C03         -1.3600    -0.0180    -0.9500 c3         1 8EW      -0.176200
      4 C04         -2.3560    -0.1960     0.2190 c          1 8EW       0.717000
      5 O05         -2.3860    -1.2750     0.7930 o          1 8EW      -0.756500
      6 O06         -3.0010     0.7750     0.5880 o          1 8EW      -0.756500
      7 C07          1.0630    -0.4910    -0.4140 ce         1 8EW      -0.311200
      8 C08          2.4710    -0.2690     0.0450 c          1 8EW       0.709200
      9 O09          2.8230     0.8200     0.4640 o          1 8EW      -0.770000
     10 O10          3.2260    -1.2250    -0.0200 o          1 8EW      -0.770000
     11 H1           0.8930     2.3880    -0.5650 hc         1 8EW       0.017033
     12 H2          -0.8310     2.4020    -0.2260 hc         1 8EW       0.017033
     13 H3           0.3000     1.9430     1.0480 hc         1 8EW       0.017033
     14 H5          -1.7090     0.7700    -1.6300 hc         1 8EW       0.007700
     15 H6          -1.2390    -0.9790    -1.4670 hc         1 8EW       0.007700
     16 H8           0.8830    -1.5100    -0.7470 ha         1 8EW       0.133000
@<TRIPOS>BOND
     1     1     2 1   
     2     1    11 1   
     3     1    12 1   
     4     1    13 1   
     5     2     3 1   
     6     2     7 2   
     7     3     4 1   
     8     3    14 1   
     9     3    15 1   
    10     4     5 1   
    11     4     6 1   
    12     7     8 1   
    13     7    16 1   
    14     8     9 1   
    15     8    10 1   
@<TRIPOS>SUBSTRUCTURE
     1 8EW         1 TEMP              0 ****  ****    0 ROOT
