@<TRIPOS>MOLECULE
8EW
   16    15     1     0     0
SMALL
bcc


@<TRIPOS>ATOM
      1 C01          0.1850     1.7890     0.2030 c3         1 8EW      -0.014900
      2 C02          0.0470     0.4200    -0.3990 c2         1 8EW      -0.068400
      3 C03         -1.3110     0.1140    -0.9540 c3         1 8EW      -0.176200
      4 C04         -2.4050    -0.1090     0.1180 c          1 8EW       0.927600
      5 O05         -2.0430    -0.1650     1.3080 o          1 8EW      -0.861800
      6 O06         -3.5690    -0.2330    -0.3150 o          1 8EW      -0.861800
      7 C07          1.0290    -0.4870    -0.4900 ce         1 8EW      -0.261200
      8 C08          2.4520    -0.3890    -0.0130 c          1 8EW       0.919800
      9 O09          2.8930     0.7150     0.3730 o          1 8EW      -0.875300
     10 O10          3.1040    -1.4590    -0.0520 o          1 8EW      -0.875300
     11 H1           0.6160     2.4810    -0.5260 hc         1 8EW       0.017033
     12 H2          -0.7900     2.1860     0.4840 hc         1 8EW       0.017033
     13 H3           0.8360     1.8040     1.0720 hc         1 8EW       0.017033
     14 H5          -1.6370     0.9330    -1.6070 hc         1 8EW       0.007700
     15 H6          -1.2750    -0.7770    -1.5910 hc         1 8EW       0.007700
     16 H8           0.7730    -1.4370    -0.9550 ha         1 8EW       0.083000
@<TRIPOS>BOND
     1     1     2 1   
     2     1    11 1   
     3     1    12 1   
     4     1    13 1   
     5     2     3 1   
     6     2     7 2   
     7     3     4 1   
     8     3    14 1   
     9     3    15 1   
    10     4     5 1   
    11     4     6 1   
    12     7     8 1   
    13     7    16 1   
    14     8     9 1   
    15     8    10 1   
@<TRIPOS>SUBSTRUCTURE
     1 8EW         1 TEMP              0 ****  ****    0 ROOT
