@<TRIPOS>MOLECULE
8EX
   36    36     1     0     0
SMALL
No Charge or Current Charge


@<TRIPOS>ATOM
      1 C1          -2.8220     0.6660    -0.1500 c6         1 8EX       0.401300
      2 C2          -3.7330     0.8190     1.1090 c6         1 8EX       0.001700
      3 C3          -3.5690    -0.4620     1.9830 c6         1 8EX       0.160300
      4 C4          -3.8820    -1.7580     1.1600 c6         1 8EX       0.156300
      5 C5          -2.9690    -1.7490    -0.1050 c6         1 8EX       0.143300
      6 C6          -3.2600    -2.9650    -1.0440 c3         1 8EX       0.221600
      7 C8          -3.4050     4.3640     2.6570 c3         1 8EX      -0.182100
      8 N2          -3.4230     2.0310     1.9180 ns         1 8EX      -0.492900
      9 O1          -3.0130     1.7410    -1.0580 oh         1 8EX      -0.638000
     10 O3          -4.3840    -0.3640     3.1680 oh         1 8EX      -0.703000
     11 O4          -5.2810    -1.8090     0.7770 os         1 8EX      -0.586700
     12 O5          -3.1620    -0.5280    -0.8630 os         1 8EX      -0.400000
     13 O6          -2.2110    -3.1250    -2.0240 os         1 8EX      -0.585700
     14 O7          -4.1910     3.6230     0.4960 o          1 8EX      -0.599100
     15 O1S         -0.0070    -3.9580    -2.7030 o          1 8EX      -0.722867
     16 O2S         -0.6110    -3.8760    -0.3080 o          1 8EX      -0.722867
     17 O3S         -1.7000    -5.5110    -1.7980 o          1 8EX      -0.722867
     18 S1          -1.0280    -4.2100    -1.6770 s6         1 8EX       1.501300
     19 S2          -6.2870    -2.8050     1.6030 s6         1 8EX       1.498300
     20 O5S         -7.6020    -2.5720     0.9930 o          1 8EX      -0.708533
     21 O6S         -5.7290    -4.1430     1.3730 o          1 8EX      -0.708533
     22 O4S         -6.1540    -2.3200     2.9830 o          1 8EX      -0.708533
     23 H1          -1.7660     0.6260     0.1560 h2         1 8EX      -0.007300
     24 H2          -4.7790     0.8750     0.7710 h1         1 8EX       0.129700
     25 H3          -2.5130    -0.5170     2.2900 h1         1 8EX       0.033700
     26 H4          -3.6190    -2.6410     1.7620 h1         1 8EX       0.070700
     27 H5          -1.9210    -1.7940     0.2220 h1         1 8EX       0.060700
     28 H61         -4.2180    -2.7760    -1.5460 h1         1 8EX       0.064700
     29 H62         -3.3910    -3.8720    -0.4370 h1         1 8EX       0.064700
     30 H81         -3.9240     4.0900     3.5830 hc         1 8EX       0.045033
     31 H82         -2.3520     4.2680     2.9460 hc         1 8EX       0.045033
     32 H83         -3.6470     5.3860     2.3440 hc         1 8EX       0.045033
     33 HN2         -3.0640     1.8870     2.8550 hn         1 8EX       0.293500
     34 HO1         -3.4400     2.4540    -0.5210 ho         1 8EX       0.436000
     35 HO3         -5.0840    -1.0770     3.0960 ho         1 8EX       0.511000
     36 C7          -3.7220     3.3300     1.5850 c          1 8EX       0.602100
@<TRIPOS>BOND
     1     1     2 1   
     2     1     9 1   
     3     1    12 1   
     4     1    23 1   
     5     2     3 1   
     6     2     8 1   
     7     2    24 1   
     8     3     4 1   
     9     3    10 1   
    10     3    25 1   
    11     4     5 1   
    12     4    11 1   
    13     4    26 1   
    14     5     6 1   
    15     5    12 1   
    16     5    27 1   
    17     6    13 1   
    18     6    28 1   
    19     6    29 1   
    20     7    30 1   
    21     7    31 1   
    22     7    32 1   
    23     7    36 1   
    24     8    33 1   
    25     8    36 1   
    26     9    34 1   
    27    10    35 1   
    28    11    19 1   
    29    13    18 1   
    30    14    36 2   
    31    15    18 1   
    32    16    18 1   
    33    17    18 1   
    34    19    20 1   
    35    19    21 1   
    36    19    22 1   
@<TRIPOS>SUBSTRUCTURE
     1 8EX         1 TEMP              0 ****  ****    0 ROOT
