@<TRIPOS>MOLECULE
8EX
   36    36     1     0     0
SMALL
bcc


@<TRIPOS>ATOM
      1 C1          -2.7910     0.5470    -0.1990 c6         1 8EX       0.354900
      2 C2          -3.6790     0.7720     1.0340 c6         1 8EX       0.001700
      3 C3          -3.5830    -0.4370     1.9740 c6         1 8EX       0.137100
      4 C4          -3.9020    -1.7040     1.1810 c6         1 8EX       0.133100
      5 C5          -2.9680    -1.7810    -0.0210 c6         1 8EX       0.120100
      6 C6          -3.2190    -3.0120    -0.8690 c3         1 8EX       0.198400
      7 C8          -3.4840     4.1490     2.7460 c3         1 8EX      -0.182100
      8 N2          -3.2780     1.9830     1.7030 ns         1 8EX      -0.559900
      9 O1          -2.9670     1.5280    -1.1650 oh         1 8EX      -0.575800
     10 O3          -4.3420    -0.2640     3.1340 oh         1 8EX      -0.640800
     11 O4          -5.2410    -1.6570     0.6860 os         1 8EX      -0.563500
     12 O5          -3.1310    -0.6420    -0.8400 os         1 8EX      -0.353600
     13 O6          -2.2730    -3.1140    -1.9230 os         1 8EX      -0.562500
     14 O7          -5.2720     3.0510     1.6080 o          1 8EX      -0.599100
     15 O1S         -0.1660    -3.7620    -2.8600 o          1 8EX      -0.722867
     16 O2S         -0.3730    -3.6360    -0.4040 o          1 8EX      -0.722867
     17 O3S         -1.4850    -5.4410    -1.6330 o          1 8EX      -0.722867
     18 S1          -0.9580    -4.0750    -1.6750 s6         1 8EX       1.501300
     19 S2          -6.3930    -2.5600     1.4320 s6         1 8EX       1.498300
     20 O5S         -7.5620    -2.2680     0.6160 o          1 8EX      -0.708533
     21 O6S         -5.9140    -3.9390     1.3820 o          1 8EX      -0.708533
     22 O4S         -6.4590    -2.0150     2.8020 o          1 8EX      -0.708533
     23 H1          -1.7360     0.5010     0.1370 h2         1 8EX      -0.007300
     24 H2          -4.7100     0.9000     0.7030 h1         1 8EX       0.129700
     25 H3          -2.5330    -0.5340     2.2860 h1         1 8EX       0.033700
     26 H4          -3.7390    -2.5850     1.8130 h1         1 8EX       0.070700
     27 H5          -1.9420    -1.8260     0.3680 h1         1 8EX       0.060700
     28 H61         -4.2030    -2.9580    -1.3390 h1         1 8EX       0.064700
     29 H62         -3.2180    -3.9000    -0.2290 h1         1 8EX       0.064700
     30 H81         -4.0360     4.2930     3.6760 hc         1 8EX       0.045033
     31 H82         -2.4350     3.9920     2.9900 hc         1 8EX       0.045033
     32 H83         -3.5720     5.0710     2.1720 hc         1 8EX       0.045033
     33 HN2         -2.3480     2.0110     2.0940 hn         1 8EX       0.293500
     34 HO1         -2.6580     2.3680    -0.8090 ho         1 8EX       0.397000
     35 HO3         -5.1870    -0.7420     3.0560 ho         1 8EX       0.472000
     36 C7          -4.1060     3.0150     1.9690 c          1 8EX       0.669100
@<TRIPOS>BOND
     1     1     2 1   
     2     1     9 1   
     3     1    12 1   
     4     1    23 1   
     5     2     3 1   
     6     2     8 1   
     7     2    24 1   
     8     3     4 1   
     9     3    10 1   
    10     3    25 1   
    11     4     5 1   
    12     4    11 1   
    13     4    26 1   
    14     5     6 1   
    15     5    12 1   
    16     5    27 1   
    17     6    13 1   
    18     6    28 1   
    19     6    29 1   
    20     7    30 1   
    21     7    31 1   
    22     7    32 1   
    23     7    36 1   
    24     8    33 1   
    25     8    36 1   
    26     9    34 1   
    27    10    35 1   
    28    11    19 1   
    29    13    18 1   
    30    14    36 2   
    31    15    18 1   
    32    16    18 1   
    33    17    18 1   
    34    19    20 1   
    35    19    21 1   
    36    19    22 1   
@<TRIPOS>SUBSTRUCTURE
     1 8EX         1 TEMP              0 ****  ****    0 ROOT
