@<TRIPOS>MOLECULE
8EY
   45    47     1     0     0
SMALL
abcg2


@<TRIPOS>ATOM
      1 C23         -4.1200     1.2010    -0.8370 ca         1 8EY       0.016000
      2 C24         -4.9120     0.2040    -0.2850 ca         1 8EY      -0.090000
      3 C25         -4.3000    -0.8480     0.3930 ca         1 8EY      -0.055300
      4 C26         -2.9190    -0.8760     0.4930 ca         1 8EY      -0.129000
      5 C22         -2.7270     1.1880    -0.7350 ca         1 8EY      -0.170000
      6 C21         -2.1260     0.1340    -0.0590 ca         1 8EY       0.144100
      7 C12          0.0540     1.0220    -0.3930 c3         1 8EY       0.208900
      8 C11          5.9210    -0.3150     2.4590 c3         1 8EY      -0.056800
      9 C08          1.4610     0.6730    -0.0130 ca         1 8EY      -0.075300
     10 C07          1.8150     0.5700     1.3470 ca         1 8EY      -0.108000
     11 C06          3.1070     0.2820     1.7010 ca         1 8EY      -0.079000
     12 C09          2.4130     0.4750    -0.9810 ca         1 8EY      -0.083000
     13 C10          3.7530     0.1800    -0.6440 ca         1 8EY       0.323000
     14 N01          4.6390     0.0030    -1.6520 nb         1 8EY      -0.762000
     15 C05          4.1030     0.0840     0.7230 ca         1 8EY      -0.117000
     16 C04          5.4680    -0.2020     1.0380 ca         1 8EY       0.006700
     17 C03          6.3400    -0.3710     0.0070 ca         1 8EY      -0.212000
     18 C02          5.8850    -0.2670    -1.3430 ca         1 8EY       0.622900
     19 N02          6.7640    -0.4920    -2.3490 nv         1 8EY      -1.069900
     20 N31         -5.2490     3.1470    -2.1040 n1         1 8EY      -0.456000
     21 C30         -4.7450     2.2790    -1.5380 cg         1 8EY       0.324000
     22 C27         -5.1250    -1.9260     1.0470 c3         1 8EY       0.201100
     23 N28         -6.3400    -2.2040     0.3160 n7         1 8EY      -0.862400
     24 C29         -7.2000    -3.1430     1.0080 c3         1 8EY       0.145100
     25 O13         -0.7990    -0.0010     0.1030 os         1 8EY      -0.340100
     26 H1          -5.9880     0.2370    -0.3840 ha         1 8EY       0.146000
     27 H2          -2.4310    -1.6970     1.0060 ha         1 8EY       0.129000
     28 H3          -2.1550     1.9860    -1.1870 ha         1 8EY       0.129000
     29 H4          -0.2260     1.9870     0.0450 h1         1 8EY       0.045700
     30 H5          -0.0390     1.1080    -1.4800 h1         1 8EY       0.045700
     31 H6           5.6910     0.5900     3.0240 hc         1 8EY       0.049367
     32 H7           5.4230    -1.1430     2.9660 hc         1 8EY       0.049367
     33 H8           6.9950    -0.4840     2.5180 hc         1 8EY       0.049367
     34 H9           1.0680     0.7260     2.1150 ha         1 8EY       0.120000
     35 H10          3.3640     0.2100     2.7510 ha         1 8EY       0.112000
     36 H11          2.1550     0.5470    -2.0310 ha         1 8EY       0.129000
     37 H12          7.3840    -0.5870     0.1990 ha         1 8EY       0.119000
     38 H13          7.7500    -0.4350    -2.1610 hn         1 8EY       0.480000
     39 H14          6.4860    -0.2290    -3.2800 hn         1 8EY       0.480000
     40 H15         -4.4950    -2.8150     1.2040 h1         1 8EY       0.041200
     41 H16         -5.4060    -1.5810     2.0480 h1         1 8EY       0.041200
     42 H17         -6.1010    -2.5790    -0.5940 hn         1 8EY       0.413000
     43 H19         -6.7220    -4.1030     1.2430 h1         1 8EY       0.031700
     44 H20         -7.5370    -2.7070     1.9500 h1         1 8EY       0.031700
     45 H21         -8.0840    -3.3460     0.4040 h1         1 8EY       0.031700
@<TRIPOS>BOND
     1     1     2 ar  
     2     1     5 ar  
     3     1    21 1   
     4     2     3 ar  
     5     2    26 1   
     6     3     4 ar  
     7     3    22 1   
     8     4     6 ar  
     9     4    27 1   
    10     5     6 ar  
    11     5    28 1   
    12     6    25 1   
    13     7     9 1   
    14     7    25 1   
    15     7    29 1   
    16     7    30 1   
    17     8    16 1   
    18     8    31 1   
    19     8    32 1   
    20     8    33 1   
    21     9    10 ar  
    22     9    12 ar  
    23    10    11 ar  
    24    10    34 1   
    25    11    15 ar  
    26    11    35 1   
    27    12    13 ar  
    28    12    36 1   
    29    13    14 ar  
    30    13    15 ar  
    31    14    18 ar  
    32    15    16 ar  
    33    16    17 ar  
    34    17    18 ar  
    35    17    37 1   
    36    18    19 1   
    37    19    38 1   
    38    19    39 1   
    39    20    21 3   
    40    22    23 1   
    41    22    40 1   
    42    22    41 1   
    43    23    24 1   
    44    23    42 1   
    45    24    43 1   
    46    24    44 1   
    47    24    45 1   
@<TRIPOS>SUBSTRUCTURE
     1 8EY         1 TEMP              0 ****  ****    0 ROOT
