@<TRIPOS>MOLECULE
8EY
   45    47     1     0     0
SMALL
No Charge or Current Charge


@<TRIPOS>ATOM
      1 C23         -4.2890     1.6110    -0.4240 ca         1 8EY       0.016000
      2 C24         -5.0390     0.4870    -0.0300 ca         1 8EY      -0.090000
      3 C25         -4.3960    -0.6590     0.4760 ca         1 8EY      -0.055300
      4 C26         -2.9910    -0.6710     0.5830 ca         1 8EY      -0.129000
      5 C22         -2.8840     1.5910    -0.3110 ca         1 8EY      -0.170000
      6 C21         -2.2330     0.4440     0.1940 ca         1 8EY       0.144100
      7 C12          0.0100     1.4490    -0.0400 c3         1 8EY       0.208900
      8 C11          6.2090     0.1490     2.2460 c3         1 8EY      -0.056800
      9 C08          1.4460     1.0250     0.2330 ca         1 8EY      -0.075300
     10 C07          2.0710     1.3670     1.4440 ca         1 8EY      -0.108000
     11 C06          3.3950     0.9730     1.6940 ca         1 8EY      -0.079000
     12 C09          2.1600     0.2800    -0.7240 ca         1 8EY      -0.083000
     13 C10          3.4880    -0.1270    -0.4960 ca         1 8EY       0.323000
     14 N01          4.1290    -0.8400    -1.4520 nb         1 8EY      -0.762000
     15 C05          4.1140     0.2270     0.7330 ca         1 8EY      -0.117000
     16 C04          5.4520    -0.1810     0.9630 ca         1 8EY       0.006700
     17 C03          6.0870    -0.9190    -0.0470 ca         1 8EY      -0.212000
     18 C02          5.3740    -1.2100    -1.2080 ca         1 8EY       0.622900
     19 N02          5.8770    -1.8950    -2.2370 nv         1 8EY      -1.069900
     20 N31         -5.4940     3.7280    -1.3540 n1         1 8EY      -0.456000
     21 C30         -4.9580     2.7760    -0.9400 cg         1 8EY       0.324000
     22 C27         -5.2140    -1.8720     0.9010 c3         1 8EY       0.201100
     23 N28         -5.6510    -2.6440    -0.2780 n7         1 8EY      -0.862400
     24 C29         -6.4370    -3.8560     0.0230 c3         1 8EY       0.145100
     25 O13         -0.8620     0.3660     0.3260 os         1 8EY      -0.340100
     26 H1          -6.1240     0.4970    -0.1190 ha         1 8EY       0.146000
     27 H2          -2.4820    -1.5500     0.9700 ha         1 8EY       0.129000
     28 H3          -2.3190     2.4670    -0.6190 ha         1 8EY       0.129000
     29 H4          -0.2250     2.3490     0.5430 h1         1 8EY       0.045700
     30 H5          -0.1020     1.6920    -1.1050 h1         1 8EY       0.045700
     31 H6           6.2880     1.2330     2.3890 hc         1 8EY       0.049367
     32 H7           5.7040    -0.2750     3.1220 hc         1 8EY       0.049367
     33 H8           7.2280    -0.2530     2.2310 hc         1 8EY       0.049367
     34 H9           1.5310     1.9380     2.1960 ha         1 8EY       0.120000
     35 H10          3.8470     1.2550     2.6410 ha         1 8EY       0.112000
     36 H11          1.6790     0.0090    -1.6600 ha         1 8EY       0.129000
     37 H12          7.1110    -1.2620     0.0660 ha         1 8EY       0.119000
     38 H13          6.8860    -1.9080    -2.3340 hn         1 8EY       0.480000
     39 H14          5.3410    -1.8240    -3.0930 hn         1 8EY       0.480000
     40 H15         -4.6080    -2.5000     1.5690 h1         1 8EY       0.041200
     41 H16         -6.0840    -1.5280     1.4790 h1         1 8EY       0.041200
     42 H17         -4.8090    -2.9260    -0.7960 hn         1 8EY       0.413000
     43 H19         -5.8540    -4.5600     0.6330 h1         1 8EY       0.031700
     44 H20         -7.3530    -3.6030     0.5730 h1         1 8EY       0.031700
     45 H21         -6.7270    -4.3690    -0.9040 h1         1 8EY       0.031700
@<TRIPOS>BOND
     1     1     2 ar  
     2     1     5 ar  
     3     1    21 1   
     4     2     3 ar  
     5     2    26 1   
     6     3     4 ar  
     7     3    22 1   
     8     4     6 ar  
     9     4    27 1   
    10     5     6 ar  
    11     5    28 1   
    12     6    25 1   
    13     7     9 1   
    14     7    25 1   
    15     7    29 1   
    16     7    30 1   
    17     8    16 1   
    18     8    31 1   
    19     8    32 1   
    20     8    33 1   
    21     9    10 ar  
    22     9    12 ar  
    23    10    11 ar  
    24    10    34 1   
    25    11    15 ar  
    26    11    35 1   
    27    12    13 ar  
    28    12    36 1   
    29    13    14 ar  
    30    13    15 ar  
    31    14    18 ar  
    32    15    16 ar  
    33    16    17 ar  
    34    17    18 ar  
    35    17    37 1   
    36    18    19 1   
    37    19    38 1   
    38    19    39 1   
    39    20    21 3   
    40    22    23 1   
    41    22    40 1   
    42    22    41 1   
    43    23    24 1   
    44    23    42 1   
    45    24    43 1   
    46    24    44 1   
    47    24    45 1   
@<TRIPOS>SUBSTRUCTURE
     1 8EY         1 TEMP              0 ****  ****    0 ROOT
