@<TRIPOS>MOLECULE
8EZ
   23    23     1     0     0
SMALL
No Charge or Current Charge


@<TRIPOS>ATOM
      1 C01          0.3660     1.7550     1.0820 c3         1 8EZ      -0.071100
      2 C02          0.4670     1.0730    -0.3170 c6         1 8EZ      -0.038700
      3 C03          1.9510     0.8160    -0.7160 c6         1 8EZ      -0.071400
      4 C04          2.5890    -0.3330     0.1070 c6         1 8EZ      -0.066400
      5 C05          1.7650    -1.6380    -0.0180 c6         1 8EZ      -0.076400
      6 C06          0.2800    -1.4150     0.3680 c6         1 8EZ      -0.051400
      7 C07         -0.3520    -0.2560    -0.4600 c6         1 8EZ      -0.181700
      8 C08         -1.8780    -0.0980    -0.2050 c          1 8EZ       0.718000
      9 O09         -2.6290    -0.2190    -1.1630 o          1 8EZ      -0.740500
     10 O10         -2.2770     0.0520     0.9400 o          1 8EZ      -0.740500
     11 H013         1.0210     2.6330     1.1370 hc         1 8EZ       0.021033
     12 H011        -0.6510     2.1090     1.2830 hc         1 8EZ       0.021033
     13 H012         0.6540     1.0800     1.8960 hc         1 8EZ       0.021033
     14 H021         0.0550     1.8040    -1.0270 hc         1 8EZ       0.055700
     15 H031         2.0020     0.5650    -1.7850 hc         1 8EZ       0.016700
     16 H032         2.5410     1.7340    -0.5940 hc         1 8EZ       0.016700
     17 H042         3.6160    -0.5100    -0.2420 hc         1 8EZ       0.016700
     18 H041         2.6700    -0.0420     1.1630 hc         1 8EZ       0.016700
     19 H052         1.8240    -2.0120    -1.0490 hc         1 8EZ       0.014700
     20 H051         2.2020    -2.4170     0.6210 hc         1 8EZ       0.014700
     21 H061        -0.2830    -2.3420     0.1960 hc         1 8EZ       0.039700
     22 H062         0.2030    -1.2050     1.4430 hc         1 8EZ       0.039700
     23 H071        -0.2630    -0.5300    -1.5220 hc         1 8EZ       0.024700
@<TRIPOS>BOND
     1     1     2 1   
     2     1    11 1   
     3     1    12 1   
     4     1    13 1   
     5     2     3 1   
     6     2     7 1   
     7     2    14 1   
     8     3     4 1   
     9     3    15 1   
    10     3    16 1   
    11     4     5 1   
    12     4    17 1   
    13     4    18 1   
    14     5     6 1   
    15     5    19 1   
    16     5    20 1   
    17     6     7 1   
    18     6    21 1   
    19     6    22 1   
    20     7     8 1   
    21     7    23 1   
    22     8     9 1   
    23     8    10 1   
@<TRIPOS>SUBSTRUCTURE
     1 8EZ         1 TEMP              0 ****  ****    0 ROOT
