@<TRIPOS>MOLECULE
8EZ
   23    23     1     0     0
SMALL
bcc


@<TRIPOS>ATOM
      1 C01          0.3260     1.7340     0.9570 c3         1 8EZ      -0.071100
      2 C02          0.4530     1.0120    -0.3830 c6         1 8EZ      -0.038700
      3 C03          1.9200     0.7670    -0.7500 c6         1 8EZ      -0.071400
      4 C04          2.5740    -0.3020     0.1200 c6         1 8EZ      -0.066400
      5 C05          1.7810    -1.6030     0.0630 c6         1 8EZ      -0.076400
      6 C06          0.3180    -1.3840     0.4400 c6         1 8EZ      -0.051400
      7 C07         -0.3310    -0.3140    -0.4320 c6         1 8EZ      -0.181700
      8 C08         -1.8270    -0.0790    -0.1430 c          1 8EZ       0.928600
      9 O09         -2.4130     0.7250    -0.9010 o          1 8EZ      -0.845800
     10 O10         -2.3470    -0.6930     0.8100 o          1 8EZ      -0.845800
     11 H013         0.8830     2.6730     0.9370 hc         1 8EZ       0.021033
     12 H011        -0.7130     1.9800     1.1840 hc         1 8EZ       0.021033
     13 H012         0.7150     1.1490     1.7910 hc         1 8EZ       0.021033
     14 H021         0.0220     1.6690    -1.1430 hc         1 8EZ       0.055700
     15 H031         1.9740     0.4460    -1.7970 hc         1 8EZ       0.016700
     16 H032         2.4820     1.7040    -0.6880 hc         1 8EZ       0.016700
     17 H042         3.6040    -0.4700    -0.2080 hc         1 8EZ       0.016700
     18 H041         2.6380     0.0440     1.1570 hc         1 8EZ       0.016700
     19 H052         1.8340    -2.0050    -0.9560 hc         1 8EZ       0.014700
     20 H051         2.2330    -2.3550     0.7150 hc         1 8EZ       0.014700
     21 H061        -0.2330    -2.3220     0.3430 hc         1 8EZ       0.039700
     22 H062         0.2480    -1.1070     1.4960 hc         1 8EZ       0.039700
     23 H071        -0.2660    -0.6620    -1.4740 hc         1 8EZ       0.024700
@<TRIPOS>BOND
     1     1     2 1   
     2     1    11 1   
     3     1    12 1   
     4     1    13 1   
     5     2     3 1   
     6     2     7 1   
     7     2    14 1   
     8     3     4 1   
     9     3    15 1   
    10     3    16 1   
    11     4     5 1   
    12     4    17 1   
    13     4    18 1   
    14     5     6 1   
    15     5    19 1   
    16     5    20 1   
    17     6     7 1   
    18     6    21 1   
    19     6    22 1   
    20     7     8 1   
    21     7    23 1   
    22     8     9 1   
    23     8    10 1   
@<TRIPOS>SUBSTRUCTURE
     1 8EZ         1 TEMP              0 ****  ****    0 ROOT
