@<TRIPOS>MOLECULE
8F0
   53    56     1     0     0
SMALL
bcc


@<TRIPOS>ATOM
      1 C13          4.4030    -0.4360    -1.7100 c3         1 8F0      -0.117100
      2 C17          1.7180    -3.1350     0.9200 cx         1 8F0      -0.124400
      3 C20         -2.8840     2.3280    -1.7000 c3         1 8F0      -0.094100
      4 C21         -4.6150     0.7300     1.0170 ca         1 8F0      -0.112000
      5 C22         -5.7660     0.0010     1.2900 ca         1 8F0      -0.131500
      6 C24         -5.6630    -0.9700    -0.8870 ca         1 8F0      -0.131500
      7 C01          0.1230     2.0710    -0.0560 ca         1 8F0      -0.221000
      8 C02         -0.3140     0.7740    -0.3300 ca         1 8F0       0.198600
      9 C03          0.6240    -0.2690    -0.2700 ca         1 8F0      -0.242000
     10 C04          1.9440    -0.0410     0.0870 ca         1 8F0       0.175600
     11 C05          2.3660     1.2690     0.3820 ca         1 8F0      -0.032400
     12 C06          1.4500     2.3000     0.2910 ca         1 8F0      -0.093000
     13 C08          4.2340    -0.6580    -0.2040 c6         1 8F0       0.141500
     14 C09          4.6670     0.5780     0.5600 c          1 8F0       0.712500
     15 C14          2.5190    -2.3870    -0.0990 cx         1 8F0       0.136500
     16 C16         -2.7140     1.4040    -0.4950 c3         1 8F0       0.280800
     17 C18          3.1610    -3.4710     0.7070 cx         1 8F0      -0.124400
     18 C19         -3.9740     0.6220    -0.2110 ca         1 8F0      -0.115300
     19 C23         -6.3100    -0.8610     0.3440 ca         1 8F0      -0.066300
     20 C25         -4.5170    -0.2410    -1.1630 ca         1 8F0      -0.112000
     21 N07          2.8920    -1.0430     0.1940 nh         1 8F0      -0.627000
     22 N10          3.6910     1.4790     0.8170 n          1 8F0      -0.358000
     23 N15         -1.6090     0.4750    -0.6830 nu         1 8F0      -0.767600
     24 O12          5.8340     0.7410     0.8830 o          1 8F0      -0.632500
     25 H1           3.7610     0.3660    -2.0760 hc         1 8F0       0.049367
     26 H2           5.4360    -0.1810    -1.9440 hc         1 8F0       0.049367
     27 H3           4.1520    -1.3460    -2.2550 hc         1 8F0       0.049367
     28 H4           1.4520    -2.6060     1.8260 hc         1 8F0       0.078950
     29 H5           0.9650    -3.8230     0.5590 hc         1 8F0       0.078950
     30 H6          -1.9760     2.9030    -1.8880 hc         1 8F0       0.042700
     31 H7          -3.1070     1.7580    -2.6030 hc         1 8F0       0.042700
     32 H8          -3.6980     3.0330    -1.5300 hc         1 8F0       0.042700
     33 H9          -4.2090     1.3890     1.7760 ha         1 8F0       0.134000
     34 H10         -6.2410     0.1030     2.2580 ha         1 8F0       0.131500
     35 H11         -6.0620    -1.6360    -1.6440 ha         1 8F0       0.131500
     36 H12         -8.4130    -1.2250     0.0790 hc         1 8F0       0.044033
     37 H13         -7.4620    -2.6810     0.3190 hc         1 8F0       0.044033
     38 H14         -7.8130    -1.6230     1.6850 hc         1 8F0       0.044033
     39 H15         -0.5490     2.9160    -0.1030 ha         1 8F0       0.134000
     40 H16          0.3010    -1.2760    -0.5010 ha         1 8F0       0.136000
     41 H17          1.7510     3.3180     0.5020 ha         1 8F0       0.132000
     42 H18          4.9060    -1.4580     0.1070 h1         1 8F0       0.089700
     43 H22          2.3070    -2.6160    -1.1430 h1         1 8F0       0.068700
     44 H23         -2.5170     2.0290     0.3850 h1         1 8F0       0.046700
     45 H24          3.8650    -3.1770     1.4760 hc         1 8F0       0.078950
     46 H25          3.4100    -4.3940     0.2000 hc         1 8F0       0.078950
     47 H26         -4.0450    -0.3510    -2.1320 ha         1 8F0       0.134000
     48 H27         -1.8520    -0.4980    -0.5940 hn         1 8F0       0.419800
     49 C11          4.0090     2.7130     1.5090 c3         1 8F0       0.083300
     50 C26         -7.5630    -1.6390     0.6250 c3         1 8F0      -0.048800
     51 H19          3.2610     2.9090     2.2750 h1         1 8F0       0.047367
     52 H20          4.9810     2.6230     1.9830 h1         1 8F0       0.047367
     53 H21          4.0360     3.5620     0.8230 h1         1 8F0       0.047367
@<TRIPOS>BOND
     1     1    13 1   
     2     1    25 1   
     3     1    26 1   
     4     1    27 1   
     5     2    15 1   
     6     2    17 1   
     7     2    28 1   
     8     2    29 1   
     9     3    16 1   
    10     3    30 1   
    11     3    31 1   
    12     3    32 1   
    13     4     5 ar  
    14     4    18 ar  
    15     4    33 1   
    16     5    19 ar  
    17     5    34 1   
    18     6    19 ar  
    19     6    20 ar  
    20     6    35 1   
    21     7     8 ar  
    22     7    12 ar  
    23     7    39 1   
    24     8     9 ar  
    25     8    23 1   
    26     9    10 ar  
    27     9    40 1   
    28    10    11 ar  
    29    10    21 1   
    30    11    12 ar  
    31    11    22 1   
    32    12    41 1   
    33    13    14 1   
    34    13    21 1   
    35    13    42 1   
    36    14    22 1   
    37    14    24 2   
    38    15    17 1   
    39    15    21 1   
    40    15    43 1   
    41    16    18 1   
    42    16    23 1   
    43    16    44 1   
    44    17    45 1   
    45    17    46 1   
    46    18    20 ar  
    47    19    50 1   
    48    20    47 1   
    49    22    49 1   
    50    23    48 1   
    51    36    50 1   
    52    37    50 1   
    53    38    50 1   
    54    49    51 1   
    55    49    52 1   
    56    49    53 1   
@<TRIPOS>SUBSTRUCTURE
     1 8F0         1 TEMP              0 ****  ****    0 ROOT
