@<TRIPOS>MOLECULE
8F0
   53    56     1     0     0
SMALL
No Charge or Current Charge


@<TRIPOS>ATOM
      1 C13          4.1300    -0.2880    -2.1430 c3         1 8F0      -0.117100
      2 C17          1.9540    -3.1050     1.1500 cx         1 8F0      -0.124400
      3 C20         -2.5250     1.9250    -1.6270 c3         1 8F0      -0.094100
      4 C21         -5.0290     0.9350     0.8780 ca         1 8F0      -0.094000
      5 C22         -6.2590     0.2620     0.9800 ca         1 8F0      -0.113500
      6 C24         -5.6590    -1.1250    -0.9200 ca         1 8F0      -0.113500
      7 C01          0.0960     2.0020     0.6420 ca         1 8F0      -0.203000
      8 C02         -0.3330     0.7150     0.2920 ca         1 8F0       0.337000
      9 C03          0.6080    -0.2890     0.0630 ca         1 8F0      -0.224000
     10 C04          1.9850    -0.0320     0.1960 ca         1 8F0       0.314000
     11 C05          2.4240     1.2560     0.6180 ca         1 8F0      -0.125000
     12 C06          1.4640     2.2800     0.7780 ca         1 8F0      -0.075000
     13 C08          4.2490    -0.5650    -0.6190 c6         1 8F0       0.141500
     14 C09          4.8080     0.7010     0.0950 c          1 8F0       0.570000
     15 C14          2.6080    -2.4920    -0.0650 cx         1 8F0       0.136500
     16 C16         -2.7690     1.3300    -0.2230 c3         1 8F0       0.280800
     17 C18          3.3950    -3.4150     0.8340 cx         1 8F0      -0.124400
     18 C19         -4.1030     0.5870    -0.1270 ca         1 8F0      -0.115300
     19 C23         -6.5800    -0.7720     0.0820 ca         1 8F0      -0.066300
     20 C25         -4.4290    -0.4530    -1.0240 ca         1 8F0      -0.094000
     21 N07          2.9300    -1.0530    -0.1070 nh         1 8F0      -0.765400
     22 N10          3.8410     1.5700     0.6570 n          1 8F0      -0.198400
     23 N15         -1.6860     0.4130     0.1460 nu         1 8F0      -0.961200
     24 O12          6.0170     0.9100     0.1730 o          1 8F0      -0.557000
     25 H1           3.4060     0.5100    -2.3490 hc         1 8F0       0.049367
     26 H2           5.0950     0.0200    -2.5630 hc         1 8F0       0.049367
     27 H3           3.8050    -1.1850    -2.6830 hc         1 8F0       0.049367
     28 H4           1.7500    -2.4570     1.9990 hc         1 8F0       0.078950
     29 H5           1.2160    -3.8850     0.9830 hc         1 8F0       0.078950
     30 H6          -1.6160     2.5370    -1.6390 hc         1 8F0       0.042700
     31 H7          -2.4160     1.1400    -2.3830 hc         1 8F0       0.042700
     32 H8          -3.3660     2.5670    -1.9170 hc         1 8F0       0.042700
     33 H9          -4.7970     1.7300     1.5830 ha         1 8F0       0.116000
     34 H10         -6.9630     0.5460     1.7590 ha         1 8F0       0.113500
     35 H11         -5.8950    -1.9220    -1.6220 ha         1 8F0       0.113500
     36 H12         -8.6780    -1.0020    -0.4160 hc         1 8F0       0.044033
     37 H13         -7.8320    -2.5360    -0.1530 hc         1 8F0       0.044033
     38 H14         -8.2710    -1.5230     1.2270 hc         1 8F0       0.044033
     39 H15         -0.6240     2.7970     0.8020 ha         1 8F0       0.116000
     40 H16          0.2650    -1.2670    -0.2510 ha         1 8F0       0.118000
     41 H17          1.7610     3.2980     1.0170 ha         1 8F0       0.114000
     42 H18          5.0150    -1.3410    -0.4710 h1         1 8F0       0.089700
     43 H22          2.3170    -2.8990    -1.0350 h1         1 8F0       0.068700
     44 H23         -2.7950     2.1640     0.4920 h1         1 8F0       0.046700
     45 H24          4.1570    -2.9760     1.4720 hc         1 8F0       0.078950
     46 H25          3.6310    -4.4050     0.4530 hc         1 8F0       0.078950
     47 H26         -3.7290    -0.7460    -1.8030 ha         1 8F0       0.116000
     48 H27         -1.8920    -0.5760     0.0130 hn         1 8F0       0.475000
     49 C11          4.3080     2.7620     1.4090 c3         1 8F0       0.083300
     50 C26         -7.9130    -1.4980     0.1910 c3         1 8F0      -0.048800
     51 H19          3.6530     2.9410     2.2710 h1         1 8F0       0.047367
     52 H20          5.3260     2.6180     1.7890 h1         1 8F0       0.047367
     53 H21          4.2910     3.6400     0.7520 h1         1 8F0       0.047367
@<TRIPOS>BOND
     1     1    13 1   
     2     1    25 1   
     3     1    26 1   
     4     1    27 1   
     5     2    15 1   
     6     2    17 1   
     7     2    28 1   
     8     2    29 1   
     9     3    16 1   
    10     3    30 1   
    11     3    31 1   
    12     3    32 1   
    13     4     5 ar  
    14     4    18 ar  
    15     4    33 1   
    16     5    19 ar  
    17     5    34 1   
    18     6    19 ar  
    19     6    20 ar  
    20     6    35 1   
    21     7     8 ar  
    22     7    12 ar  
    23     7    39 1   
    24     8     9 ar  
    25     8    23 1   
    26     9    10 ar  
    27     9    40 1   
    28    10    11 ar  
    29    10    21 1   
    30    11    12 ar  
    31    11    22 1   
    32    12    41 1   
    33    13    14 1   
    34    13    21 1   
    35    13    42 1   
    36    14    22 1   
    37    14    24 2   
    38    15    17 1   
    39    15    21 1   
    40    15    43 1   
    41    16    18 1   
    42    16    23 1   
    43    16    44 1   
    44    17    45 1   
    45    17    46 1   
    46    18    20 ar  
    47    19    50 1   
    48    20    47 1   
    49    22    49 1   
    50    23    48 1   
    51    36    50 1   
    52    37    50 1   
    53    38    50 1   
    54    49    51 1   
    55    49    52 1   
    56    49    53 1   
@<TRIPOS>SUBSTRUCTURE
     1 8F0         1 TEMP              0 ****  ****    0 ROOT
