@<TRIPOS>MOLECULE
8F1
   48    50     1     0     0
SMALL
abcg2


@<TRIPOS>ATOM
      1 N28          4.7180    -4.1060    -2.0930 n1         1 8F1      -0.453000
      2 C27          4.3020    -3.2100    -1.4990 cg         1 8F1       0.323000
      3 C23          3.7870    -2.0980    -0.7660 ca         1 8F1       0.022000
      4 C24          4.6730    -1.2070    -0.1730 ca         1 8F1      -0.108000
      5 C25          4.1720    -0.1250     0.5450 ca         1 8F1      -0.045300
      6 C31          5.0990     0.8810     1.1650 c3         1 8F1      -0.037100
      7 C32          5.3280     2.0730     0.2380 c3         1 8F1       0.156800
      8 N33          6.1940     3.0520     0.8610 n7         1 8F1      -0.858400
      9 C34          6.4500     4.1910     0.0030 c3         1 8F1       0.144100
     10 C22          2.4030    -1.9420    -0.6660 ca         1 8F1      -0.172000
     11 C21          1.9100    -0.8580     0.0490 ca         1 8F1       0.147100
     12 C26          2.7990     0.0380     0.6470 ca         1 8F1      -0.128000
     13 O13          0.6040    -0.5920     0.2170 os         1 8F1      -0.339100
     14 C12         -0.3550    -1.4790    -0.3480 c3         1 8F1       0.209900
     15 C08         -1.7110    -0.9540     0.0090 ca         1 8F1      -0.077300
     16 C09         -2.5360    -0.4390    -0.9590 ca         1 8F1      -0.079000
     17 C07         -2.1390    -0.9750     1.3520 ca         1 8F1      -0.108000
     18 C06         -3.3740    -0.4870     1.6880 ca         1 8F1      -0.079000
     19 C05         -4.2370     0.0440     0.7090 ca         1 8F1      -0.115000
     20 C04         -5.5360     0.5650     1.0060 ca         1 8F1       0.005700
     21 C11         -6.0600     0.5690     2.4070 c3         1 8F1      -0.056800
     22 C03         -6.2780     1.0550    -0.0240 ca         1 8F1      -0.211000
     23 C02         -5.7610     1.0370    -1.3550 ca         1 8F1       0.620900
     24 N02         -6.5050     1.5730    -2.3540 nv         1 8F1      -1.067900
     25 N01         -4.5760     0.5580    -1.6490 nb         1 8F1      -0.760000
     26 C10         -3.8160     0.0690    -0.6410 ca         1 8F1       0.321000
     27 H1           5.7410    -1.3580    -0.2660 ha         1 8F1       0.129000
     28 H2           4.6750     1.2340     2.1090 hc         1 8F1       0.057700
     29 H3           6.0600     0.4180     1.3990 hc         1 8F1       0.057700
     30 H4           5.8060     1.7260    -0.6840 h1         1 8F1       0.035200
     31 H5           4.3540     2.4940    -0.0620 h1         1 8F1       0.035200
     32 H6           5.7530     3.3770     1.7130 hn         1 8F1       0.404000
     33 H8           7.0310     3.8780    -0.8670 h1         1 8F1       0.030367
     34 H9           5.5420     4.6840    -0.3720 h1         1 8F1       0.030367
     35 H10          7.0380     4.9350     0.5400 h1         1 8F1       0.030367
     36 H11          1.7530    -2.6620    -1.1430 ha         1 8F1       0.129000
     37 H12          2.3960     0.8770     1.2030 ha         1 8F1       0.131000
     38 H13         -0.2370    -1.5310    -1.4350 h1         1 8F1       0.045200
     39 H14         -0.2150    -2.4890     0.0540 h1         1 8F1       0.045200
     40 H15         -2.2200    -0.4140    -1.9960 ha         1 8F1       0.129000
     41 H16         -1.4920    -1.3830     2.1190 ha         1 8F1       0.119000
     42 H17         -3.6890    -0.5110     2.7240 ha         1 8F1       0.113000
     43 H18         -6.1460    -0.4470     2.7990 hc         1 8F1       0.049700
     44 H19         -5.3950     1.1150     3.0780 hc         1 8F1       0.049700
     45 H20         -7.0440     1.0310     2.4570 hc         1 8F1       0.049700
     46 H21         -7.2650     1.4650     0.1580 ha         1 8F1       0.119000
     47 H22         -7.4950     1.6860    -2.2160 hn         1 8F1       0.479000
     48 H23         -6.2220     1.3770    -3.3000 hn         1 8F1       0.479000
@<TRIPOS>BOND
     1     1     2 3   
     2     2     3 1   
     3     3     4 ar  
     4     3    10 ar  
     5     4     5 ar  
     6     4    27 1   
     7     5     6 1   
     8     5    12 ar  
     9     6     7 1   
    10     6    28 1   
    11     6    29 1   
    12     7     8 1   
    13     7    30 1   
    14     7    31 1   
    15     8     9 1   
    16     8    32 1   
    17     9    33 1   
    18     9    34 1   
    19     9    35 1   
    20    10    11 ar  
    21    10    36 1   
    22    11    12 ar  
    23    11    13 1   
    24    12    37 1   
    25    13    14 1   
    26    14    15 1   
    27    14    38 1   
    28    14    39 1   
    29    15    16 ar  
    30    15    17 ar  
    31    16    26 ar  
    32    16    40 1   
    33    17    18 ar  
    34    17    41 1   
    35    18    19 ar  
    36    18    42 1   
    37    19    20 ar  
    38    19    26 ar  
    39    20    21 1   
    40    20    22 ar  
    41    21    43 1   
    42    21    44 1   
    43    21    45 1   
    44    22    23 ar  
    45    22    46 1   
    46    23    24 1   
    47    23    25 ar  
    48    24    47 1   
    49    24    48 1   
    50    25    26 ar  
@<TRIPOS>SUBSTRUCTURE
     1 8F1         1 TEMP              0 ****  ****    0 ROOT
