@<TRIPOS>MOLECULE
8F1
   48    50     1     0     0
SMALL
No Charge or Current Charge


@<TRIPOS>ATOM
      1 N28          4.8840    -4.2910    -1.6010 n1         1 8F1      -0.453000
      2 C27          4.4290    -3.3330    -1.1120 cg         1 8F1       0.323000
      3 C23          3.8580    -2.1560    -0.5110 ca         1 8F1       0.022000
      4 C24          4.6980    -1.1320    -0.0320 ca         1 8F1      -0.108000
      5 C25          4.1500     0.0220     0.5580 ca         1 8F1      -0.045300
      6 C31          5.0610     1.1300     1.0700 c3         1 8F1      -0.037100
      7 C32          5.3850     2.1630    -0.0280 c3         1 8F1       0.156800
      8 N33          6.2770     3.2180     0.4960 n7         1 8F1      -0.858400
      9 C34          6.6750     4.2450    -0.4870 c3         1 8F1       0.144100
     10 C22          2.4600    -2.0230    -0.4020 ca         1 8F1      -0.172000
     11 C21          1.9040    -0.8660     0.1860 ca         1 8F1       0.147100
     12 C26          2.7520     0.1470     0.6610 ca         1 8F1      -0.128000
     13 O13          0.5440    -0.6790     0.3190 os         1 8F1      -0.339100
     14 C12         -0.4140    -1.6520    -0.1320 c3         1 8F1       0.209900
     15 C08         -1.8110    -1.1260     0.1670 ca         1 8F1      -0.077300
     16 C09         -2.4440    -0.2450    -0.7300 ca         1 8F1      -0.079000
     17 C07         -2.4800    -1.5090     1.3410 ca         1 8F1      -0.108000
     18 C06         -3.7670    -1.0210     1.6150 ca         1 8F1      -0.079000
     19 C05         -4.4050    -0.1380     0.7140 ca         1 8F1      -0.115000
     20 C04         -5.7050     0.3660     0.9690 ca         1 8F1       0.005700
     21 C11         -6.5040     0.0010     2.2160 c3         1 8F1      -0.056800
     22 C03         -6.2590     1.2380     0.0200 ca         1 8F1      -0.211000
     23 C02         -5.5080     1.5590    -1.1090 ca         1 8F1       0.620900
     24 N02         -5.9350     2.3680    -2.0800 nv         1 8F1      -1.067900
     25 N01         -4.2960     1.1010    -1.3750 nb         1 8F1      -0.760000
     26 C10         -3.7340     0.2580    -0.4780 ca         1 8F1       0.321000
     27 H1           5.7780    -1.2330    -0.1180 ha         1 8F1       0.129000
     28 H2           4.5910     1.6400     1.9200 hc         1 8F1       0.057700
     29 H3           5.9970     0.7020     1.4480 hc         1 8F1       0.057700
     30 H4           5.8620     1.6450    -0.8710 h1         1 8F1       0.035200
     31 H5           4.4460     2.6010    -0.3930 h1         1 8F1       0.035200
     32 H6           5.7950     3.6900     1.2720 hn         1 8F1       0.404000
     33 H8           7.2060     3.7910    -1.3340 h1         1 8F1       0.030367
     34 H9           5.7960     4.7760    -0.8770 h1         1 8F1       0.030367
     35 H10          7.3420     4.9840    -0.0240 h1         1 8F1       0.030367
     36 H11          1.8250    -2.8210    -0.7770 ha         1 8F1       0.129000
     37 H12          2.3160     1.0360     1.1100 ha         1 8F1       0.131000
     38 H13         -0.3120    -1.8230    -1.2120 h1         1 8F1       0.045200
     39 H14         -0.2640    -2.6100     0.3820 h1         1 8F1       0.045200
     40 H15         -1.9280     0.0580    -1.6370 ha         1 8F1       0.129000
     41 H16         -2.0020    -2.1860     2.0460 ha         1 8F1       0.119000
     42 H17         -4.2550    -1.3390     2.5320 ha         1 8F1       0.113000
     43 H18         -6.6810    -1.0800     2.2690 hc         1 8F1       0.049700
     44 H19         -5.9760     0.3050     3.1270 hc         1 8F1       0.049700
     45 H20         -7.4850     0.4920     2.2280 hc         1 8F1       0.049700
     46 H21         -7.2500     1.6600     0.1550 ha         1 8F1       0.119000
     47 H22         -6.9370     2.4800    -2.1810 hn         1 8F1       0.479000
     48 H23         -5.3970     2.3210    -2.9370 hn         1 8F1       0.479000
@<TRIPOS>BOND
     1     1     2 3   
     2     2     3 1   
     3     3     4 ar  
     4     3    10 ar  
     5     4     5 ar  
     6     4    27 1   
     7     5     6 1   
     8     5    12 ar  
     9     6     7 1   
    10     6    28 1   
    11     6    29 1   
    12     7     8 1   
    13     7    30 1   
    14     7    31 1   
    15     8     9 1   
    16     8    32 1   
    17     9    33 1   
    18     9    34 1   
    19     9    35 1   
    20    10    11 ar  
    21    10    36 1   
    22    11    12 ar  
    23    11    13 1   
    24    12    37 1   
    25    13    14 1   
    26    14    15 1   
    27    14    38 1   
    28    14    39 1   
    29    15    16 ar  
    30    15    17 ar  
    31    16    26 ar  
    32    16    40 1   
    33    17    18 ar  
    34    17    41 1   
    35    18    19 ar  
    36    18    42 1   
    37    19    20 ar  
    38    19    26 ar  
    39    20    21 1   
    40    20    22 ar  
    41    21    43 1   
    42    21    44 1   
    43    21    45 1   
    44    22    23 ar  
    45    22    46 1   
    46    23    24 1   
    47    23    25 ar  
    48    24    47 1   
    49    24    48 1   
    50    25    26 ar  
@<TRIPOS>SUBSTRUCTURE
     1 8F1         1 TEMP              0 ****  ****    0 ROOT
