@<TRIPOS>MOLECULE
8F2
   50    53     1     0     0
SMALL
abcg2


@<TRIPOS>ATOM
      1 C12          2.7970    -0.5880     1.5990 ca         1 8F2      -0.100500
      2 C11          4.1220    -0.2680     1.3440 ca         1 8F2      -0.016500
      3 C10          4.4830     0.1370     0.0690 ca         1 8F2      -0.258500
      4 S1           6.1700     0.5490    -0.2820 sy         1 8F2       1.124600
      5 O1           6.2090     1.6270    -1.2580 o          1 8F2      -0.543000
      6 O2           6.8560     0.7410     0.9890 o          1 8F2      -0.543000
      7 N2           6.6610    -0.8070    -1.0840 n8         1 8F2      -1.001100
      8 C15          3.5460     0.2380    -0.9520 ca         1 8F2      -0.016500
      9 C14          2.2240    -0.0590    -0.6800 ca         1 8F2      -0.100500
     10 C13          1.8440    -0.4670     0.5960 ca         1 8F2      -0.085600
     11 C16          0.4350    -0.8970     0.8680 c          1 8F2       0.603700
     12 O3           0.2250    -2.0390     1.2420 o          1 8F2      -0.573100
     13 N1          -0.5550    -0.0060     0.6300 n          1 8F2      -0.402800
     14 C8          -0.3370     1.4350     0.6550 c6         1 8F2       0.106000
     15 C9          -1.2540     2.1250    -0.3320 c6         1 8F2      -0.040100
     16 C5          -2.6760     1.8000     0.0180 ca         1 8F2      -0.066300
     17 C4          -3.7010     2.7250    -0.1690 ca         1 8F2      -0.119000
     18 C3          -5.0010     2.4430     0.2070 ca         1 8F2       0.130100
     19 O5          -5.9630     3.3680     0.0050 oh         1 8F2      -0.533100
     20 C2          -5.2840     1.2050     0.8040 ca         1 8F2       0.048100
     21 O4          -6.5720     0.9960     1.1630 oh         1 8F2      -0.556100
     22 C1          -4.2680     0.2900     0.9950 ca         1 8F2      -0.145000
     23 C6          -2.9610     0.5740     0.5990 ca         1 8F2      -0.088300
     24 C7          -1.9200    -0.5150     0.7560 c6         1 8F2       0.211300
     25 C18         -2.1840    -1.5910    -0.2830 ca         1 8F2      -0.085300
     26 C17         -2.7550    -2.8000     0.0890 ca         1 8F2      -0.088500
     27 C22         -3.0600    -3.7640    -0.8650 ca         1 8F2      -0.112500
     28 C21         -2.7840    -3.5290    -2.2040 ca         1 8F2      -0.104000
     29 C20         -2.2060    -2.3220    -2.5820 ca         1 8F2      -0.112500
     30 C19         -1.9130    -1.3590    -1.6280 ca         1 8F2      -0.088500
     31 H1           2.5080    -0.9150     2.5890 ha         1 8F2       0.130000
     32 H2           4.8560    -0.3400     2.1350 ha         1 8F2       0.140000
     33 H3           7.5160    -0.6390    -1.6080 hn         1 8F2       0.474500
     34 H4           6.7800    -1.6060    -0.4690 hn         1 8F2       0.474500
     35 H5           3.8360     0.5480    -1.9470 ha         1 8F2       0.140000
     36 H6           1.4870     0.0240    -1.4690 ha         1 8F2       0.130000
     37 H7          -0.5260     1.8200     1.6620 h1         1 8F2       0.053700
     38 H8           0.7020     1.6490     0.4210 h1         1 8F2       0.053700
     39 H9          -1.0860     3.2020    -0.2890 hc         1 8F2       0.062200
     40 H10         -1.0090     1.8080    -1.3510 hc         1 8F2       0.062200
     41 H11         -3.4800     3.6920    -0.6080 ha         1 8F2       0.132000
     42 H12         -6.8110     3.0550     0.3430 ho         1 8F2       0.484000
     43 H13         -6.6760     0.1330     1.5780 ho         1 8F2       0.476000
     44 H14         -4.5000    -0.6660     1.4530 ha         1 8F2       0.118000
     45 H15         -2.0460    -0.9640     1.7480 h1         1 8F2       0.068700
     46 H16         -2.9590    -2.9980     1.1350 ha         1 8F2       0.111500
     47 H17         -3.5040    -4.7020    -0.5570 ha         1 8F2       0.111500
     48 H18         -3.0150    -4.2790    -2.9490 ha         1 8F2       0.112000
     49 H19         -1.9870    -2.1280    -3.6240 ha         1 8F2       0.111500
     50 H20         -1.4690    -0.4210    -1.9410 ha         1 8F2       0.111500
@<TRIPOS>BOND
     1     1     2 ar  
     2     1    10 ar  
     3     1    31 1   
     4     2     3 ar  
     5     2    32 1   
     6     3     4 1   
     7     3     8 ar  
     8     4     5 2   
     9     4     6 2   
    10     4     7 1   
    11     7    33 1   
    12     7    34 1   
    13     8     9 ar  
    14     8    35 1   
    15     9    10 ar  
    16     9    36 1   
    17    10    11 1   
    18    11    12 2   
    19    11    13 1   
    20    13    14 1   
    21    13    24 1   
    22    14    15 1   
    23    14    37 1   
    24    14    38 1   
    25    15    16 1   
    26    15    39 1   
    27    15    40 1   
    28    16    17 ar  
    29    16    23 ar  
    30    17    18 ar  
    31    17    41 1   
    32    18    19 1   
    33    18    20 ar  
    34    19    42 1   
    35    20    21 1   
    36    20    22 ar  
    37    21    43 1   
    38    22    23 ar  
    39    22    44 1   
    40    23    24 1   
    41    24    25 1   
    42    24    45 1   
    43    25    26 ar  
    44    25    30 ar  
    45    26    27 ar  
    46    26    46 1   
    47    27    28 ar  
    48    27    47 1   
    49    28    29 ar  
    50    28    48 1   
    51    29    30 ar  
    52    29    49 1   
    53    30    50 1   
@<TRIPOS>SUBSTRUCTURE
     1 8F2         1 TEMP              0 ****  ****    0 ROOT
