@<TRIPOS>MOLECULE
8F2
   50    53     1     0     0
SMALL
No Charge or Current Charge


@<TRIPOS>ATOM
      1 C12          2.9860    -0.8170     1.5610 ca         1 8F2      -0.100500
      2 C11          4.3140    -0.5630     1.1760 ca         1 8F2      -0.016500
      3 C10          4.5830     0.0870    -0.0460 ca         1 8F2      -0.258500
      4 S1           6.2770     0.4140    -0.5480 sy         1 8F2       1.124600
      5 O1           6.3280     1.5410    -1.4790 o          1 8F2      -0.543000
      6 O2           7.1740     0.2890     0.5980 o          1 8F2      -0.543000
      7 N2           6.6200    -0.9040    -1.4560 n8         1 8F2      -1.001100
      8 C15          3.5140     0.4690    -0.8800 ca         1 8F2      -0.016500
      9 C14          2.1880     0.2130    -0.4900 ca         1 8F2      -0.100500
     10 C13          1.9060    -0.4160     0.7450 ca         1 8F2      -0.085600
     11 C16          0.4850    -0.7260     1.1740 c          1 8F2       0.603700
     12 O3           0.2430    -1.7180     1.8520 o          1 8F2      -0.573100
     13 N1          -0.5550     0.1000     0.6900 n          1 8F2      -0.402800
     14 C8          -0.4070     1.5800     0.7770 c6         1 8F2       0.106000
     15 C9          -1.3470     2.3310    -0.1810 c6         1 8F2      -0.040100
     16 C5          -2.7910     1.9410     0.0710 ca         1 8F2      -0.066300
     17 C4          -3.8300     2.8660    -0.1490 ca         1 8F2      -0.119000
     18 C3          -5.1590     2.5000     0.1090 ca         1 8F2       0.130100
     19 O5          -6.1720     3.3900    -0.0990 oh         1 8F2      -0.533100
     20 C2          -5.4580     1.2090     0.5880 ca         1 8F2       0.048100
     21 O4          -6.7590     0.8560     0.8380 oh         1 8F2      -0.556100
     22 C1          -4.4210     0.2860     0.8020 ca         1 8F2      -0.145000
     23 C6          -3.0810     0.6450     0.5430 ca         1 8F2      -0.088300
     24 C7          -1.9660    -0.4000     0.7540 c6         1 8F2       0.211300
     25 C18         -2.1520    -1.5530    -0.2410 ca         1 8F2      -0.085300
     26 C17         -2.5070    -2.8400     0.2120 ca         1 8F2      -0.088500
     27 C22         -2.6780    -3.8920    -0.7040 ca         1 8F2      -0.112500
     28 C21         -2.4960    -3.6660    -2.0790 ca         1 8F2      -0.104000
     29 C20         -2.1420    -2.3860    -2.5370 ca         1 8F2      -0.112500
     30 C19         -1.9710    -1.3330    -1.6220 ca         1 8F2      -0.088500
     31 H1           2.7960    -1.3210     2.5070 ha         1 8F2       0.130000
     32 H2           5.1260    -0.8730     1.8320 ha         1 8F2       0.140000
     33 H3           7.4950    -1.2060    -1.0340 hn         1 8F2       0.474500
     34 H4           5.9410    -1.5820    -1.1200 hn         1 8F2       0.474500
     35 H5           3.7050     0.9560    -1.8350 ha         1 8F2       0.140000
     36 H6           1.3800     0.4910    -1.1630 ha         1 8F2       0.130000
     37 H7          -0.6340     1.8880     1.8070 h1         1 8F2       0.053700
     38 H8           0.6260     1.8910     0.5800 h1         1 8F2       0.053700
     39 H9          -1.2120     3.4130    -0.0490 hc         1 8F2       0.062200
     40 H10         -1.0770     2.1040    -1.2210 hc         1 8F2       0.062200
     41 H11         -3.6080     3.8650    -0.5140 ha         1 8F2       0.132000
     42 H12         -6.9980     2.9170     0.1470 ho         1 8F2       0.484000
     43 H13         -6.7810    -0.0730     1.1600 ho         1 8F2       0.476000
     44 H14         -4.6480    -0.7150     1.1630 ha         1 8F2       0.118000
     45 H15         -2.1210    -0.8010     1.7670 h1         1 8F2       0.068700
     46 H16         -2.6480    -3.0260     1.2750 ha         1 8F2       0.111500
     47 H17         -2.9510    -4.8830    -0.3480 ha         1 8F2       0.111500
     48 H18         -2.6280    -4.4810    -2.7870 ha         1 8F2       0.112000
     49 H19         -2.0010    -2.2090    -3.6010 ha         1 8F2       0.111500
     50 H20         -1.6980    -0.3440    -1.9840 ha         1 8F2       0.111500
@<TRIPOS>BOND
     1     1     2 ar  
     2     1    10 ar  
     3     1    31 1   
     4     2     3 ar  
     5     2    32 1   
     6     3     4 1   
     7     3     8 ar  
     8     4     5 2   
     9     4     6 2   
    10     4     7 1   
    11     7    33 1   
    12     7    34 1   
    13     8     9 ar  
    14     8    35 1   
    15     9    10 ar  
    16     9    36 1   
    17    10    11 1   
    18    11    12 2   
    19    11    13 1   
    20    13    14 1   
    21    13    24 1   
    22    14    15 1   
    23    14    37 1   
    24    14    38 1   
    25    15    16 1   
    26    15    39 1   
    27    15    40 1   
    28    16    17 ar  
    29    16    23 ar  
    30    17    18 ar  
    31    17    41 1   
    32    18    19 1   
    33    18    20 ar  
    34    19    42 1   
    35    20    21 1   
    36    20    22 ar  
    37    21    43 1   
    38    22    23 ar  
    39    22    44 1   
    40    23    24 1   
    41    24    25 1   
    42    24    45 1   
    43    25    26 ar  
    44    25    30 ar  
    45    26    27 ar  
    46    26    46 1   
    47    27    28 ar  
    48    27    47 1   
    49    28    29 ar  
    50    28    48 1   
    51    29    30 ar  
    52    29    49 1   
    53    30    50 1   
@<TRIPOS>SUBSTRUCTURE
     1 8F2         1 TEMP              0 ****  ****    0 ROOT
