@<TRIPOS>MOLECULE
8F3
   50    53     1     0     0
SMALL
bcc


@<TRIPOS>ATOM
      1 C12          1.5950     0.3820     1.1590 ca         1 8F3      -0.120000
      2 C11          2.7800     0.9160     0.6820 ca         1 8F3      -0.039500
      3 C10          3.7500     0.0610     0.1790 ca         1 8F3      -0.307500
      4 S1           5.2750     0.7350    -0.4350 sy         1 8F3       1.285200
      5 O1           5.8040    -0.1940    -1.4180 o          1 8F3      -0.599300
      6 O2           5.0310     2.1210    -0.7930 o          1 8F3      -0.599300
      7 N2           6.3430     0.7540     0.8100 n8         1 8F3      -0.889700
      8 C15          3.5580    -1.3140     0.1570 ca         1 8F3      -0.039500
      9 C14          2.3780    -1.8390     0.6570 ca         1 8F3      -0.120000
     10 C13          1.3860    -0.9930     1.1410 ca         1 8F3      -0.088600
     11 C16          0.1490    -1.5830     1.7520 c          1 8F3       0.683700
     12 O3           0.2670    -2.2780     2.7500 o          1 8F3      -0.587100
     13 N1          -1.0350    -1.2960     1.1790 n          1 8F3      -0.466800
     14 C8          -2.2870    -1.6390     1.8320 c6         1 8F3       0.093000
     15 C9          -2.9740    -0.3600     2.2780 c6         1 8F3      -0.048100
     16 C5          -2.9810     0.6760     1.1850 ca         1 8F3      -0.062300
     17 C4          -3.8300     1.7810     1.2790 ca         1 8F3      -0.182000
     18 C3          -3.8470     2.7600     0.3050 ca         1 8F3       0.055100
     19 O5          -4.6510     3.8470     0.3340 oh         1 8F3      -0.516100
     20 C2          -2.9890     2.6570    -0.8000 ca         1 8F3       0.122100
     21 O4          -2.9660     3.5960    -1.7700 oh         1 8F3      -0.491100
     22 C1          -2.1480     1.5650    -0.8940 ca         1 8F3      -0.129000
     23 C6          -2.1380     0.5740     0.0870 ca         1 8F3      -0.096300
     24 C7          -1.2140    -0.6070    -0.0920 c6         1 8F3       0.214300
     25 C18         -1.6780    -1.5980    -1.1520 ca         1 8F3      -0.106300
     26 C17         -2.9840    -1.6350    -1.6260 ca         1 8F3      -0.111000
     27 C22         -3.3670    -2.5830    -2.5680 ca         1 8F3      -0.129000
     28 C21         -2.4450    -3.5010    -3.0500 ca         1 8F3      -0.118000
     29 C20         -1.1350    -3.4660    -2.5850 ca         1 8F3      -0.129000
     30 C19         -0.7580    -2.5220    -1.6440 ca         1 8F3      -0.111000
     31 H1           0.8300     1.0460     1.5440 ha         1 8F3       0.149000
     32 H2           2.9310     1.9870     0.6990 ha         1 8F3       0.157500
     33 H3           6.6150    -0.1670     1.1340 hn         1 8F3       0.423300
     34 H4           6.0670     1.3520     1.5810 hn         1 8F3       0.423300
     35 H5           4.3130    -1.9780    -0.2410 ha         1 8F3       0.157500
     36 H6           2.2290    -2.9110     0.6510 ha         1 8F3       0.149000
     37 H7          -2.9160    -2.1860     1.1260 h1         1 8F3       0.069200
     38 H8          -2.0940    -2.2990     2.6730 h1         1 8F3       0.069200
     39 H9          -3.9950    -0.5880     2.5920 hc         1 8F3       0.058700
     40 H10         -2.4610     0.0380     3.1590 hc         1 8F3       0.058700
     41 H11         -4.4950     1.8680     2.1320 ha         1 8F3       0.133000
     42 H12         -5.1860     3.8570     1.1350 ho         1 8F3       0.437000
     43 H13         -3.5750     4.3130    -1.5580 ho         1 8F3       0.444000
     44 H14         -1.4860     1.4900    -1.7500 ha         1 8F3       0.156000
     45 H15         -0.2460    -0.2300    -0.4220 h1         1 8F3       0.079700
     46 H16         -3.7130    -0.9210    -1.2630 ha         1 8F3       0.134000
     47 H17         -4.3880    -2.6020    -2.9250 ha         1 8F3       0.133500
     48 H18         -2.7420    -4.2380    -3.7850 ha         1 8F3       0.133000
     49 H19         -0.4070    -4.1730    -2.9600 ha         1 8F3       0.133500
     50 H20          0.2670    -2.5040    -1.2910 ha         1 8F3       0.134000
@<TRIPOS>BOND
     1     1     2 ar  
     2     1    10 ar  
     3     1    31 1   
     4     2     3 ar  
     5     2    32 1   
     6     3     4 1   
     7     3     8 ar  
     8     4     5 2   
     9     4     6 2   
    10     4     7 1   
    11     7    33 1   
    12     7    34 1   
    13     8     9 ar  
    14     8    35 1   
    15     9    10 ar  
    16     9    36 1   
    17    10    11 1   
    18    11    12 2   
    19    11    13 1   
    20    13    14 1   
    21    13    24 1   
    22    14    15 1   
    23    14    37 1   
    24    14    38 1   
    25    15    16 1   
    26    15    39 1   
    27    15    40 1   
    28    16    17 ar  
    29    16    23 ar  
    30    17    18 ar  
    31    17    41 1   
    32    18    19 1   
    33    18    20 ar  
    34    19    42 1   
    35    20    21 1   
    36    20    22 ar  
    37    21    43 1   
    38    22    23 ar  
    39    22    44 1   
    40    23    24 1   
    41    24    25 1   
    42    24    45 1   
    43    25    26 ar  
    44    25    30 ar  
    45    26    27 ar  
    46    26    46 1   
    47    27    28 ar  
    48    27    47 1   
    49    28    29 ar  
    50    28    48 1   
    51    29    30 ar  
    52    29    49 1   
    53    30    50 1   
@<TRIPOS>SUBSTRUCTURE
     1 8F3         1 TEMP              0 ****  ****    0 ROOT
