@<TRIPOS>MOLECULE
8F3
   50    53     1     0     0
SMALL
No Charge or Current Charge


@<TRIPOS>ATOM
      1 C12          1.8130     0.0860     1.1320 ca         1 8F3      -0.102000
      2 C11          3.0690     0.4030     0.5870 ca         1 8F3      -0.021500
      3 C10          3.8820    -0.6120     0.0440 ca         1 8F3      -0.307500
      4 S1           5.4850    -0.2030    -0.6520 sy         1 8F3       1.143600
      5 O1           5.9670    -1.3060    -1.4800 o          1 8F3      -0.528500
      6 O2           5.5180     1.1940    -1.0850 o          1 8F3      -0.528500
      7 N2           6.4360    -0.2640     0.6760 n8         1 8F3      -1.000100
      8 C15          3.4330    -1.9490     0.0650 ca         1 8F3      -0.021500
      9 C14          2.1780    -2.2610     0.6140 ca         1 8F3      -0.102000
     10 C13          1.3440    -1.2470     1.1320 ca         1 8F3      -0.088600
     11 C16         -0.0040    -1.6150     1.7160 c          1 8F3       0.616700
     12 O3          -0.1400    -2.6500     2.3600 o          1 8F3      -0.587100
     13 N1          -1.0690    -0.6920     1.5920 n          1 8F3      -0.399800
     14 C8          -2.3050    -0.9120     2.3890 c6         1 8F3       0.093000
     15 C9          -3.1240     0.3750     2.5870 c6         1 8F3      -0.048100
     16 C5          -3.4050     1.0820     1.2720 ca         1 8F3      -0.062300
     17 C4          -4.5240     1.9300     1.1570 ca         1 8F3      -0.164000
     18 C3          -4.7800     2.5990    -0.0500 ca         1 8F3       0.055100
     19 O5          -5.8700     3.4220    -0.1640 oh         1 8F3      -0.555100
     20 C2          -3.9100     2.4240    -1.1430 ca         1 8F3       0.122100
     21 O4          -4.1610     3.0800    -2.3130 oh         1 8F3      -0.530100
     22 C1          -2.7910     1.5860    -1.0280 ca         1 8F3      -0.111000
     23 C6          -2.5310     0.9040     0.1800 ca         1 8F3      -0.096300
     24 C7          -1.2870    -0.0050     0.2760 c6         1 8F3       0.214300
     25 C18         -1.2660    -1.0200    -0.8790 ca         1 8F3      -0.106300
     26 C17         -2.3420    -1.9100    -1.0700 ca         1 8F3      -0.093000
     27 C22         -2.3150    -2.8420    -2.1220 ca         1 8F3      -0.111000
     28 C21         -1.2130    -2.8900    -2.9920 ca         1 8F3      -0.100000
     29 C20         -0.1390    -2.0030    -2.8110 ca         1 8F3      -0.111000
     30 C19         -0.1660    -1.0700    -1.7610 ca         1 8F3      -0.093000
     31 H1           1.2150     0.8800     1.5740 ha         1 8F3       0.131000
     32 H2           3.4080     1.4390     0.5970 ha         1 8F3       0.139500
     33 H3           7.1450    -0.9280     0.3720 hn         1 8F3       0.478500
     34 H4           5.8610    -0.8010     1.3210 hn         1 8F3       0.478500
     35 H5           4.0480    -2.7500    -0.3420 ha         1 8F3       0.139500
     36 H6           1.8420    -3.2960     0.6200 ha         1 8F3       0.131000
     37 H7          -2.9270    -1.6670     1.8870 h1         1 8F3       0.069200
     38 H8          -2.0450    -1.3140     3.3790 h1         1 8F3       0.069200
     39 H9          -4.0640     0.1310     3.1000 hc         1 8F3       0.058700
     40 H10         -2.5740     1.0560     3.2500 hc         1 8F3       0.058700
     41 H11         -5.1880     2.0640     2.0080 ha         1 8F3       0.115000
     42 H12         -6.3570     3.4220     0.6900 ho         1 8F3       0.476000
     43 H13         -4.9820     3.6010    -2.1580 ho         1 8F3       0.483000
     44 H14         -2.1270     1.4650    -1.8800 ha         1 8F3       0.138000
     45 H15         -0.4440     0.6780     0.1160 h1         1 8F3       0.079700
     46 H16         -3.2040    -1.8790    -0.4080 ha         1 8F3       0.116000
     47 H17         -3.1490    -3.5260    -2.2640 ha         1 8F3       0.115500
     48 H18         -1.1920    -3.6120    -3.8050 ha         1 8F3       0.115000
     49 H19          0.7150    -2.0380    -3.4840 ha         1 8F3       0.115500
     50 H20          0.6730    -0.3890    -1.6330 ha         1 8F3       0.116000
@<TRIPOS>BOND
     1     1     2 ar  
     2     1    10 ar  
     3     1    31 1   
     4     2     3 ar  
     5     2    32 1   
     6     3     4 1   
     7     3     8 ar  
     8     4     5 2   
     9     4     6 2   
    10     4     7 1   
    11     7    33 1   
    12     7    34 1   
    13     8     9 ar  
    14     8    35 1   
    15     9    10 ar  
    16     9    36 1   
    17    10    11 1   
    18    11    12 2   
    19    11    13 1   
    20    13    14 1   
    21    13    24 1   
    22    14    15 1   
    23    14    37 1   
    24    14    38 1   
    25    15    16 1   
    26    15    39 1   
    27    15    40 1   
    28    16    17 ar  
    29    16    23 ar  
    30    17    18 ar  
    31    17    41 1   
    32    18    19 1   
    33    18    20 ar  
    34    19    42 1   
    35    20    21 1   
    36    20    22 ar  
    37    21    43 1   
    38    22    23 ar  
    39    22    44 1   
    40    23    24 1   
    41    24    25 1   
    42    24    45 1   
    43    25    26 ar  
    44    25    30 ar  
    45    26    27 ar  
    46    26    46 1   
    47    27    28 ar  
    48    27    47 1   
    49    28    29 ar  
    50    28    48 1   
    51    29    30 ar  
    52    29    49 1   
    53    30    50 1   
@<TRIPOS>SUBSTRUCTURE
     1 8F3         1 TEMP              0 ****  ****    0 ROOT
