@<TRIPOS>MOLECULE
8F4
   21    21     1     0     0
SMALL
bcc


@<TRIPOS>ATOM
      1 O           -1.8330     1.3200    -0.5700 o          1 8F4      -0.659500
      2 C           -0.8380     0.8120    -0.0660 c          1 8F4       0.666500
      3 NZ           0.3000     1.5050     0.0970 ns         1 8F4      -0.570900
      4 CE           1.5620     1.0110     0.6140 c3         1 8F4       0.112000
      5 CD           2.2190    -0.0470    -0.2640 c3         1 8F4      -0.100400
      6 CG           1.5700    -1.4210    -0.1600 c3         1 8F4      -0.073400
      7 CB           0.0900    -1.4840    -0.5190 c3         1 8F4      -0.073400
      8 CA          -0.8320    -0.6510     0.3860 c3         1 8F4       0.089500
      9 N           -2.1560    -1.2370     0.4150 n8         1 8F4      -0.872800
     10 H1           0.2890     2.4520    -0.2500 hn         1 8F4       0.314500
     11 H2           2.2150     1.8790     0.6930 h1         1 8F4       0.046200
     12 H3           1.4360     0.6310     1.6330 h1         1 8F4       0.046200
     13 H4           2.2220     0.3020    -1.3000 hc         1 8F4       0.049700
     14 H5           3.2660    -0.1340     0.0380 hc         1 8F4       0.049700
     15 H6           2.1130    -2.1190    -0.8020 hc         1 8F4       0.043700
     16 H7           1.6960    -1.7890     0.8640 hc         1 8F4       0.043700
     17 H8          -0.0620    -1.2030    -1.5660 hc         1 8F4       0.057200
     18 H9          -0.2380    -2.5220    -0.4280 hc         1 8F4       0.057200
     19 H10         -0.4350    -0.6950     1.4080 h1         1 8F4       0.071700
     20 H11         -2.7540    -0.7040     1.0350 hn         1 8F4       0.351800
     21 H12         -2.5790    -1.1510    -0.5010 hn         1 8F4       0.351800
@<TRIPOS>BOND
     1     1     2 2   
     2     2     3 1   
     3     2     8 1   
     4     3     4 1   
     5     3    10 1   
     6     4     5 1   
     7     4    11 1   
     8     4    12 1   
     9     5     6 1   
    10     5    13 1   
    11     5    14 1   
    12     6     7 1   
    13     6    15 1   
    14     6    16 1   
    15     7     8 1   
    16     7    17 1   
    17     7    18 1   
    18     8     9 1   
    19     8    19 1   
    20     9    20 1   
    21     9    21 1   
@<TRIPOS>SUBSTRUCTURE
     1 8F4         1 TEMP              0 ****  ****    0 ROOT
