@<TRIPOS>MOLECULE
8F4
   21    21     1     0     0
SMALL
No Charge or Current Charge


@<TRIPOS>ATOM
      1 O           -1.6870     1.3490    -0.7560 o          1 8F4      -0.584000
      2 C           -0.7790     0.8180    -0.1320 c          1 8F4       0.524000
      3 NZ           0.3040     1.5730     0.2550 ns         1 8F4      -0.503900
      4 CE           1.6070     1.0430     0.6600 c3         1 8F4       0.112000
      5 CD           2.1700    -0.0100    -0.3190 c3         1 8F4      -0.100400
      6 CG           1.5850    -1.4310    -0.1440 c3         1 8F4      -0.073400
      7 CB           0.0820    -1.5830    -0.4750 c3         1 8F4      -0.073400
      8 CA          -0.8500    -0.6740     0.3630 c3         1 8F4       0.089500
      9 N           -2.2340    -1.2570     0.3790 n8         1 8F4      -0.983200
     10 H1           0.2590     2.5530    -0.0030 hn         1 8F4       0.314500
     11 H2           2.3060     1.8890     0.7040 h1         1 8F4       0.046200
     12 H3           1.5330     0.6220     1.6720 h1         1 8F4       0.046200
     13 H4           2.0350     0.3300    -1.3530 hc         1 8F4       0.049700
     14 H5           3.2520    -0.0740    -0.1550 hc         1 8F4       0.049700
     15 H6           2.1500    -2.1200    -0.7850 hc         1 8F4       0.043700
     16 H7           1.7590    -1.7640     0.8880 hc         1 8F4       0.043700
     17 H8          -0.0790    -1.3870    -1.5430 hc         1 8F4       0.057200
     18 H9          -0.1880    -2.6340    -0.3080 hc         1 8F4       0.057200
     19 H10         -0.4880    -0.6830     1.4020 h1         1 8F4       0.071700
     20 H11         -2.8380    -0.6660     0.9640 hn         1 8F4       0.407000
     21 H12         -2.6460    -1.1380    -0.5560 hn         1 8F4       0.407000
@<TRIPOS>BOND
     1     1     2 2   
     2     2     3 1   
     3     2     8 1   
     4     3     4 1   
     5     3    10 1   
     6     4     5 1   
     7     4    11 1   
     8     4    12 1   
     9     5     6 1   
    10     5    13 1   
    11     5    14 1   
    12     6     7 1   
    13     6    15 1   
    14     6    16 1   
    15     7     8 1   
    16     7    17 1   
    17     7    18 1   
    18     8     9 1   
    19     8    19 1   
    20     9    20 1   
    21     9    21 1   
@<TRIPOS>SUBSTRUCTURE
     1 8F4         1 TEMP              0 ****  ****    0 ROOT
