@<TRIPOS>MOLECULE
8F6
   50    53     1     0     0
SMALL
No Charge or Current Charge


@<TRIPOS>ATOM
      1 C13          4.9640     1.4170     1.2880 c3         1 8F6      -0.074100
      2 C17          1.8680     2.9730    -1.2980 cx         1 8F6      -0.121400
      3 C20         -3.0850    -0.8910    -2.0690 c3         1 8F6      -0.123100
      4 C21         -5.3570    -0.8120     0.8190 ca         1 8F6      -0.098500
      5 C22         -6.5230    -0.1680     1.2700 ca         1 8F6      -0.109500
      6 C24         -5.9200     1.8150    -0.0010 ca         1 8F6      -0.109500
      7 C01         -0.3470    -1.9700    -0.2200 ca         1 8F6      -0.161000
      8 C02         -0.6880    -0.6200    -0.0420 ca         1 8F6       0.296000
      9 C03          0.3280     0.3330     0.0920 ca         1 8F6      -0.143000
     10 C04          1.6810    -0.0340    -0.0040 ca         1 8F6       0.239000
     11 C05          2.0290    -1.3950    -0.2340 ca         1 8F6      -0.103000
     12 C06          1.0000    -2.3600    -0.2820 ca         1 8F6      -0.098000
     13 C08          3.8260     0.3850     1.0200 c6         1 8F6       0.116500
     14 C09          4.3870    -0.9660     0.4690 c          1 8F6       0.532000
     15 C14          2.9350     2.0120    -0.8200 cx         1 8F6       0.111500
     16 C16         -3.1990    -0.8650    -0.5290 c3         1 8F6       0.263800
     17 C18          2.9670     3.4580    -0.3870 cx         1 8F6      -0.121400
     18 C19         -4.4640    -0.1510    -0.0490 ca         1 8F6      -0.086300
     19 C23         -6.8060     1.1450     0.8600 ca         1 8F6      -0.104000
     20 C25         -4.7540     1.1720    -0.4520 ca         1 8F6      -0.098500
     21 N07          2.7100     0.9310     0.1730 nh         1 8F6      -0.720400
     22 N10          3.4160    -1.8120    -0.1210 n          1 8F6      -0.215400
     23 N15         -2.0220    -0.2130     0.0580 nu         1 8F6      -0.934200
     24 O12          5.5770    -1.2680     0.5300 o          1 8F6      -0.545000
     25 H1           5.4890     1.6900     0.3650 hc         1 8F6       0.049033
     26 H2           4.5690     2.3340     1.7400 hc         1 8F6       0.049033
     27 H3           5.7070     1.0120     1.9840 hc         1 8F6       0.049033
     28 H4           1.9040     3.2780    -2.3400 hc         1 8F6       0.074950
     29 H5           0.8700     2.9410    -0.8780 hc         1 8F6       0.074950
     30 H7          -2.2290    -1.4970    -2.3870 hc         1 8F6       0.044033
     31 H8          -3.9890    -1.3320    -2.5070 hc         1 8F6       0.044033
     32 H9          -5.1490    -1.8290     1.1470 ha         1 8F6       0.110000
     33 H10         -7.2070    -0.6880     1.9380 ha         1 8F6       0.114000
     34 H11         -6.1360     2.8330    -0.3170 ha         1 8F6       0.114000
     35 H12         -1.1210    -2.7290    -0.2780 ha         1 8F6       0.116000
     36 H13          0.0610     1.3580     0.3110 ha         1 8F6       0.125000
     37 H14          1.2290    -3.4200    -0.3640 ha         1 8F6       0.117000
     38 H15          3.4080     0.1250     2.0030 h1         1 8F6       0.083700
     39 H19          3.6660     1.7270    -1.5790 h1         1 8F6       0.070700
     40 H20         -3.2480    -1.9070    -0.1820 h1         1 8F6       0.064700
     41 H21          3.7400     4.0920    -0.8120 hc         1 8F6       0.074950
     42 H22          2.7020     3.6860     0.6420 hc         1 8F6       0.074950
     43 H23         -7.7080     1.6430     1.2090 ha         1 8F6       0.114000
     44 H24         -4.0760     1.7050    -1.1140 ha         1 8F6       0.110000
     45 H25         -2.1590     0.7580     0.3350 hn         1 8F6       0.461000
     46 C11          3.8510    -3.0930    -0.7260 c3         1 8F6       0.082300
     47 H6          -2.9610     0.1170    -2.4790 hc         1 8F6       0.044033
     48 H16          3.2020    -3.3500    -1.5730 h1         1 8F6       0.047700
     49 H17          4.8790    -3.0160    -1.1020 h1         1 8F6       0.047700
     50 H18          3.8010    -3.8900     0.0260 h1         1 8F6       0.047700
@<TRIPOS>BOND
     1     1    13 1   
     2     1    25 1   
     3     1    26 1   
     4     1    27 1   
     5     2    15 1   
     6     2    17 1   
     7     2    28 1   
     8     2    29 1   
     9     3    16 1   
    10     3    30 1   
    11     3    31 1   
    12     3    47 1   
    13     4     5 ar  
    14     4    18 ar  
    15     4    32 1   
    16     5    19 ar  
    17     5    33 1   
    18     6    19 ar  
    19     6    20 ar  
    20     6    34 1   
    21     7     8 ar  
    22     7    12 ar  
    23     7    35 1   
    24     8     9 ar  
    25     8    23 1   
    26     9    10 ar  
    27     9    36 1   
    28    10    11 ar  
    29    10    21 1   
    30    11    12 ar  
    31    11    22 1   
    32    12    37 1   
    33    13    14 1   
    34    13    21 1   
    35    13    38 1   
    36    14    22 1   
    37    14    24 2   
    38    15    17 1   
    39    15    21 1   
    40    15    39 1   
    41    16    18 1   
    42    16    23 1   
    43    16    40 1   
    44    17    41 1   
    45    17    42 1   
    46    18    20 ar  
    47    19    43 1   
    48    20    44 1   
    49    22    46 1   
    50    23    45 1   
    51    46    48 1   
    52    46    49 1   
    53    46    50 1   
@<TRIPOS>SUBSTRUCTURE
     1 8F6         1 TEMP              0 ****  ****    0 ROOT
