@<TRIPOS>MOLECULE
8F6
   50    53     1     0     0
SMALL
bcc


@<TRIPOS>ATOM
      1 C13          4.8020     1.4110     1.5750 c3         1 8F6      -0.074100
      2 C17          2.2230     2.7100    -1.4750 cx         1 8F6      -0.121400
      3 C20         -3.1070    -0.6850    -2.0910 c3         1 8F6      -0.123100
      4 C21         -5.2760    -0.9830     0.7770 ca         1 8F6      -0.116500
      5 C22         -6.4780    -0.5000     1.2780 ca         1 8F6      -0.127500
      6 C24         -6.0830     1.5980     0.1820 ca         1 8F6      -0.127500
      7 C01         -0.3970    -1.7420    -0.2740 ca         1 8F6      -0.179000
      8 C02         -0.7540    -0.4120    -0.0290 ca         1 8F6       0.157600
      9 C03          0.2800     0.5050     0.2000 ca         1 8F6      -0.161000
     10 C04          1.6070     0.1200     0.1700 ca         1 8F6       0.100600
     11 C05          1.9520    -1.2140    -0.0690 ca         1 8F6      -0.010400
     12 C06          0.9350    -2.1350    -0.2790 ca         1 8F6      -0.116000
     13 C08          3.7030     0.4420     1.1820 c6         1 8F6       0.116500
     14 C09          4.2560    -0.8020     0.4930 c          1 8F6       0.674500
     15 C14          3.0930     1.6770    -0.8360 cx         1 8F6       0.111500
     16 C16         -3.1560    -0.7210    -0.5620 c3         1 8F6       0.263800
     17 C18          3.5090     3.1130    -0.8230 cx         1 8F6      -0.121400
     18 C19         -4.4660    -0.1880    -0.0270 ca         1 8F6      -0.086300
     19 C23         -6.8850     0.7940     0.9830 ca         1 8F6      -0.122000
     20 C25         -4.8860     1.1080    -0.3220 ca         1 8F6      -0.116500
     21 N07          2.6450     1.0620     0.3880 nh         1 8F6      -0.582000
     22 N10          3.3150    -1.5640    -0.1270 n          1 8F6      -0.375000
     23 N15         -2.0650     0.0120     0.0600 nu         1 8F6      -0.740600
     24 O12          5.4400    -1.0960     0.5030 o          1 8F6      -0.620500
     25 H1           5.3680     1.7710     0.7180 hc         1 8F6       0.049033
     26 H2           4.3710     2.2690     2.0880 hc         1 8F6       0.049033
     27 H3           5.4960     0.9280     2.2600 hc         1 8F6       0.049033
     28 H4           2.1600     2.7130    -2.5550 hc         1 8F6       0.074950
     29 H5           1.3020     2.9790    -0.9750 hc         1 8F6       0.074950
     30 H7          -2.1660    -1.0930    -2.4620 hc         1 8F6       0.044033
     31 H8          -3.9200    -1.2740    -2.5170 hc         1 8F6       0.044033
     32 H9          -4.9640    -1.9940     1.0160 ha         1 8F6       0.128000
     33 H10         -7.0950    -1.1350     1.9010 ha         1 8F6       0.132000
     34 H11         -6.3900     2.6080    -0.0540 ha         1 8F6       0.132000
     35 H12         -1.1510    -2.4970    -0.4490 ha         1 8F6       0.134000
     36 H13          0.0460     1.5400     0.4180 ha         1 8F6       0.143000
     37 H14          1.1590    -3.1770    -0.4640 ha         1 8F6       0.135000
     38 H15          3.2250     0.0930     2.1070 h1         1 8F6       0.083700
     39 H19          3.6350     1.0320    -1.5300 h1         1 8F6       0.070700
     40 H20         -3.0780    -1.7620    -0.2410 h1         1 8F6       0.064700
     41 H21          4.3450     3.4030    -1.4460 hc         1 8F6       0.074950
     42 H22          3.4420     3.6450     0.1170 hc         1 8F6       0.074950
     43 H23         -7.8200     1.1730     1.3730 ha         1 8F6       0.132000
     44 H24         -4.2820     1.7500    -0.9530 ha         1 8F6       0.128000
     45 H25         -2.1670     1.0150     0.0020 hn         1 8F6       0.405800
     46 C11          3.6970    -2.8020    -0.7780 c3         1 8F6       0.082300
     47 H6          -3.1970     0.3360    -2.4630 hc         1 8F6       0.044033
     48 H16          3.1500    -2.9120    -1.7130 h1         1 8F6       0.047700
     49 H17          4.7590    -2.7850    -0.9980 h1         1 8F6       0.047700
     50 H18          3.4890    -3.6680    -0.1480 h1         1 8F6       0.047700
@<TRIPOS>BOND
     1     1    13 1   
     2     1    25 1   
     3     1    26 1   
     4     1    27 1   
     5     2    15 1   
     6     2    17 1   
     7     2    28 1   
     8     2    29 1   
     9     3    16 1   
    10     3    30 1   
    11     3    31 1   
    12     3    47 1   
    13     4     5 ar  
    14     4    18 ar  
    15     4    32 1   
    16     5    19 ar  
    17     5    33 1   
    18     6    19 ar  
    19     6    20 ar  
    20     6    34 1   
    21     7     8 ar  
    22     7    12 ar  
    23     7    35 1   
    24     8     9 ar  
    25     8    23 1   
    26     9    10 ar  
    27     9    36 1   
    28    10    11 ar  
    29    10    21 1   
    30    11    12 ar  
    31    11    22 1   
    32    12    37 1   
    33    13    14 1   
    34    13    21 1   
    35    13    38 1   
    36    14    22 1   
    37    14    24 2   
    38    15    17 1   
    39    15    21 1   
    40    15    39 1   
    41    16    18 1   
    42    16    23 1   
    43    16    40 1   
    44    17    41 1   
    45    17    42 1   
    46    18    20 ar  
    47    19    43 1   
    48    20    44 1   
    49    22    46 1   
    50    23    45 1   
    51    46    48 1   
    52    46    49 1   
    53    46    50 1   
@<TRIPOS>SUBSTRUCTURE
     1 8F6         1 TEMP              0 ****  ****    0 ROOT
