@<TRIPOS>MOLECULE
8F7
   47    49     1     0     0
SMALL
bcc


@<TRIPOS>ATOM
      1 N28          5.0330    -3.9730    -1.0690 n1         1 8F7      -0.365800
      2 C27          4.6190    -2.9180    -0.8560 cg         1 8F7       0.236800
      3 C23          4.1010    -1.6150    -0.5900 ca         1 8F7      -0.022000
      4 C24          4.9570    -0.6150    -0.1420 ca         1 8F7      -0.067000
      5 C25          4.4520     0.6530     0.1230 ca         1 8F7      -0.092300
      6 C29          5.3660     1.7370     0.6260 c3         1 8F7       0.204100
      7 N30          6.5450     1.8570    -0.2040 n7         1 8F7      -0.806200
      8 C31          7.4930     2.8250     0.3070 c3         1 8F7       0.145100
      9 C22          2.7430    -1.3640    -0.7870 ca         1 8F7      -0.086000
     10 C21          2.2310    -0.1010    -0.5380 ca         1 8F7      -0.083300
     11 C26          3.1000     0.8910    -0.0850 ca         1 8F7      -0.105000
     12 C13          0.7680     0.1880    -0.7150 c3         1 8F7      -0.030100
     13 C12          0.0060     0.1110     0.6160 c3         1 8F7      -0.030100
     14 C08         -1.4620     0.3730     0.4430 ca         1 8F7      -0.061300
     15 C09         -2.3850    -0.6340     0.5840 ca         1 8F7      -0.182300
     16 C07         -1.9120     1.6670     0.1050 ca         1 8F7      -0.148000
     17 C06         -3.2450     1.9160    -0.0900 ca         1 8F7      -0.092000
     18 C05         -4.2020     0.8920     0.0490 ca         1 8F7      -0.189300
     19 C04         -5.6030     1.0920    -0.1440 ca         1 8F7       0.007700
     20 C11         -6.1390     2.4320    -0.5360 c3         1 8F7      -0.056800
     21 C03         -6.4320     0.0290     0.0370 ca         1 8F7      -0.296300
     22 C02         -5.8950    -1.2410     0.4030 ca         1 8F7       0.685200
     23 N02         -6.7480    -2.2770     0.6270 nv         1 8F7      -0.957500
     24 N01         -4.6130    -1.4500     0.5710 nb         1 8F7      -0.759000
     25 C10         -3.7660    -0.4070     0.4010 ca         1 8F7       0.457600
     26 H1           6.0110    -0.8190    -0.0030 ha         1 8F7       0.158000
     27 H2           4.8000     2.6770     0.7210 h1         1 8F7       0.038700
     28 H3           5.6920     1.4810     1.6390 h1         1 8F7       0.038700
     29 H4           6.2650     2.1260    -1.1390 hn         1 8F7       0.357800
     30 H6           7.8990     2.4810     1.2600 h1         1 8F7       0.031367
     31 H7           8.3260     2.9240    -0.3880 h1         1 8F7       0.031367
     32 H8           7.0720     3.8270     0.4710 h1         1 8F7       0.031367
     33 H9           2.0970    -2.1580    -1.1400 ha         1 8F7       0.144000
     34 H10          2.7100     1.8850     0.1060 ha         1 8F7       0.130000
     35 H11          0.6400     1.1810    -1.1540 hc         1 8F7       0.053200
     36 H12          0.3280    -0.5180    -1.4220 hc         1 8F7       0.053200
     37 H13          0.1600    -0.8760     1.0580 hc         1 8F7       0.052700
     38 H14          0.4340     0.8310     1.3190 hc         1 8F7       0.052700
     39 H15         -2.0670    -1.6360     0.8500 ha         1 8F7       0.146000
     40 H16         -1.1980     2.4750     0.0040 ha         1 8F7       0.128000
     41 H17         -3.5620     2.9170    -0.3510 ha         1 8F7       0.128000
     42 H18         -5.9180     3.1850     0.2220 hc         1 8F7       0.048367
     43 H19         -5.6960     2.7770    -1.4710 hc         1 8F7       0.048367
     44 H20         -7.2180     2.4040    -0.6690 hc         1 8F7       0.048367
     45 H21         -7.5010     0.1400    -0.0930 ha         1 8F7       0.136000
     46 H22         -7.6790    -2.2310     0.2560 hn         1 8F7       0.420800
     47 H23         -6.3540    -3.2000     0.6610 hn         1 8F7       0.420800
@<TRIPOS>BOND
     1     1     2 3   
     2     2     3 1   
     3     3     4 ar  
     4     3     9 ar  
     5     4     5 ar  
     6     4    26 1   
     7     5     6 1   
     8     5    11 ar  
     9     6     7 1   
    10     6    27 1   
    11     6    28 1   
    12     7     8 1   
    13     7    29 1   
    14     8    30 1   
    15     8    31 1   
    16     8    32 1   
    17     9    10 ar  
    18     9    33 1   
    19    10    11 ar  
    20    10    12 1   
    21    11    34 1   
    22    12    13 1   
    23    12    35 1   
    24    12    36 1   
    25    13    14 1   
    26    13    37 1   
    27    13    38 1   
    28    14    15 ar  
    29    14    16 ar  
    30    15    25 ar  
    31    15    39 1   
    32    16    17 ar  
    33    16    40 1   
    34    17    18 ar  
    35    17    41 1   
    36    18    19 ar  
    37    18    25 ar  
    38    19    20 1   
    39    19    21 ar  
    40    20    42 1   
    41    20    43 1   
    42    20    44 1   
    43    21    22 ar  
    44    21    45 1   
    45    22    23 1   
    46    22    24 ar  
    47    23    46 1   
    48    23    47 1   
    49    24    25 ar  
@<TRIPOS>SUBSTRUCTURE
     1 8F7         1 TEMP              0 ****  ****    0 ROOT
