@<TRIPOS>MOLECULE
8F7
   47    49     1     0     0
SMALL
No Charge or Current Charge


@<TRIPOS>ATOM
      1 N28          4.9640    -4.2950    -0.0730 n1         1 8F7      -0.455000
      2 C27          4.5790    -3.1930    -0.0610 cg         1 8F7       0.326000
      3 C23          4.1060    -1.8360    -0.0350 ca         1 8F7      -0.022000
      4 C24          5.0030    -0.7800     0.2140 ca         1 8F7      -0.049000
      5 C25          4.5450     0.5510     0.2420 ca         1 8F7      -0.092300
      6 C29          5.5210     1.6870     0.5170 c3         1 8F7       0.204100
      7 N30          6.3370     1.9640    -0.6790 n7         1 8F7      -0.861400
      8 C31          7.3030     3.0700    -0.5350 c3         1 8F7       0.145100
      9 C22          2.7440    -1.5580    -0.2570 ca         1 8F7      -0.068000
     10 C21          2.2770    -0.2300    -0.2330 ca         1 8F7      -0.083300
     11 C26          3.1810     0.8200     0.0170 ca         1 8F7      -0.087000
     12 C13          0.8020     0.0690    -0.4680 c3         1 8F7      -0.030100
     13 C12         -0.0030     0.0830     0.8470 c3         1 8F7      -0.030100
     14 C08         -1.4780     0.3830     0.6130 ca         1 8F7      -0.061300
     15 C09         -2.3900    -0.6630     0.3860 ca         1 8F7      -0.099000
     16 C07         -1.9400     1.7090     0.6140 ca         1 8F7      -0.130000
     17 C06         -3.2970     1.9880     0.3930 ca         1 8F7      -0.074000
     18 C05         -4.2160     0.9380     0.1660 ca         1 8F7      -0.124000
     19 C04         -5.5910     1.1940    -0.0600 ca         1 8F7       0.007700
     20 C11         -6.1790     2.6020    -0.0760 c3         1 8F7      -0.056800
     21 C03         -6.4280     0.0890    -0.2770 ca         1 8F7      -0.213000
     22 C02         -5.8680    -1.1860    -0.2560 ca         1 8F7       0.619900
     23 N02         -6.5640    -2.3060    -0.4580 nv         1 8F7      -1.067900
     24 N01         -4.5900    -1.4550    -0.0510 nb         1 8F7      -0.759000
     25 C10         -3.7560    -0.4100     0.1620 ca         1 8F7       0.327000
     26 H1           6.0580    -0.9900     0.3840 ha         1 8F7       0.140000
     27 H2           4.9590     2.5830     0.8150 h1         1 8F7       0.038700
     28 H3           6.1630     1.4090     1.3640 h1         1 8F7       0.038700
     29 H4           5.6940     2.1970    -1.4470 hn         1 8F7       0.413000
     30 H6           8.0170     2.8630     0.2740 h1         1 8F7       0.031367
     31 H7           7.8730     3.2080    -1.4640 h1         1 8F7       0.031367
     32 H8           6.7890     4.0140    -0.3060 h1         1 8F7       0.031367
     33 H9           2.0470    -2.3720    -0.4460 ha         1 8F7       0.126000
     34 H10          2.8220     1.8470     0.0400 ha         1 8F7       0.112000
     35 H11          0.6880     1.0390    -0.9680 hc         1 8F7       0.053200
     36 H12          0.3680    -0.6750    -1.1470 hc         1 8F7       0.053200
     37 H13          0.1110    -0.8860     1.3480 hc         1 8F7       0.052700
     38 H14          0.4310     0.8290     1.5250 hc         1 8F7       0.052700
     39 H15         -2.0370    -1.6900     0.3800 ha         1 8F7       0.128000
     40 H16         -1.2450     2.5290     0.7850 ha         1 8F7       0.110000
     41 H17         -3.6190     3.0260     0.4000 ha         1 8F7       0.110000
     42 H18         -6.0230     3.1050     0.8860 hc         1 8F7       0.048367
     43 H19         -5.7160     3.2130    -0.8600 hc         1 8F7       0.048367
     44 H20         -7.2580     2.5890    -0.2670 hc         1 8F7       0.048367
     45 H21         -7.4910     0.2170    -0.4560 ha         1 8F7       0.118000
     46 H22         -7.4360    -2.2230    -0.9690 hn         1 8F7       0.476000
     47 H23         -6.0030    -3.1260    -0.6500 hn         1 8F7       0.476000
@<TRIPOS>BOND
     1     1     2 3   
     2     2     3 1   
     3     3     4 ar  
     4     3     9 ar  
     5     4     5 ar  
     6     4    26 1   
     7     5     6 1   
     8     5    11 ar  
     9     6     7 1   
    10     6    27 1   
    11     6    28 1   
    12     7     8 1   
    13     7    29 1   
    14     8    30 1   
    15     8    31 1   
    16     8    32 1   
    17     9    10 ar  
    18     9    33 1   
    19    10    11 ar  
    20    10    12 1   
    21    11    34 1   
    22    12    13 1   
    23    12    35 1   
    24    12    36 1   
    25    13    14 1   
    26    13    37 1   
    27    13    38 1   
    28    14    15 ar  
    29    14    16 ar  
    30    15    25 ar  
    31    15    39 1   
    32    16    17 ar  
    33    16    40 1   
    34    17    18 ar  
    35    17    41 1   
    36    18    19 ar  
    37    18    25 ar  
    38    19    20 1   
    39    19    21 ar  
    40    20    42 1   
    41    20    43 1   
    42    20    44 1   
    43    21    22 ar  
    44    21    45 1   
    45    22    23 1   
    46    22    24 ar  
    47    23    46 1   
    48    23    47 1   
    49    24    25 ar  
@<TRIPOS>SUBSTRUCTURE
     1 8F7         1 TEMP              0 ****  ****    0 ROOT
