@<TRIPOS>MOLECULE
8F9
   53    56     1     0     0
SMALL
abcg2


@<TRIPOS>ATOM
      1 C13          5.1140     1.7110     1.2070 c3         1 8F9      -0.074100
      2 C17          1.9790     2.8820    -1.3110 cx         1 8F9      -0.121400
      3 C20         -2.9280    -2.3000     1.5810 c3         1 8F9      -0.103100
      4 C21         -4.7570    -0.6670    -1.0350 ca         1 8F9      -0.095000
      5 C22         -5.9270     0.0460    -1.2570 ca         1 8F9      -0.112500
      6 C24         -5.7570     1.0000     0.9240 ca         1 8F9      -0.112500
      7 C01          0.0700    -1.9400    -0.0370 ca         1 8F9      -0.183000
      8 C02         -0.3900    -0.6700     0.3340 ca         1 8F9       0.335000
      9 C03          0.5630     0.3540     0.4600 ca         1 8F9      -0.159000
     10 C04          1.8990     0.1300     0.1990 ca         1 8F9       0.250000
     11 C05          2.3480    -1.1420    -0.1730 ca         1 8F9      -0.118000
     12 C06          1.4190    -2.1680    -0.2740 ca         1 8F9      -0.087000
     13 C08          4.0770     0.6440     0.9130 c6         1 8F9       0.118500
     14 C09          4.6520    -0.4950     0.0760 c          1 8F9       0.532000
     15 C14          3.0350     1.9030    -0.9100 cx         1 8F9       0.113500
     16 C16         -2.7940    -1.3320     0.4040 c3         1 8F9       0.295800
     17 C18          3.3140     3.3720    -0.8460 cx         1 8F9      -0.121400
     18 C19         -4.0710    -0.5600     0.1700 ca         1 8F9      -0.113300
     19 C23         -6.4450     0.8970    -0.2840 ca         1 8F9      -0.066300
     20 C25         -4.5910     0.2820     1.1500 ca         1 8F9      -0.095000
     21 N07          2.8520     1.1740     0.3190 nh         1 8F9      -0.724400
     22 N10          3.7160    -1.3250    -0.4570 n          1 8F9      -0.214400
     23 N15         -1.7040    -0.3960     0.5940 nu         1 8F9      -0.984200
     24 O12          5.8490    -0.6540    -0.0980 o          1 8F9      -0.547000
     25 H1           4.6660     2.5070     1.8000 hc         1 8F9       0.048367
     26 H2           5.9320     1.2870     1.7860 hc         1 8F9       0.048367
     27 H3           5.5320     2.1510     0.3030 hc         1 8F9       0.048367
     28 H4           1.7320     2.9520    -2.3620 hc         1 8F9       0.074950
     29 H5           1.1380     3.0130    -0.6430 hc         1 8F9       0.074950
     30 H6          -2.0070    -2.8650     1.7310 hc         1 8F9       0.043700
     31 H7          -3.1470    -1.7660     2.5060 hc         1 8F9       0.043700
     32 H8          -3.7320    -3.0140     1.4000 hc         1 8F9       0.043700
     33 H9          -4.3740    -1.3180    -1.8120 ha         1 8F9       0.115000
     34 H10         -6.4400    -0.0590    -2.2050 ha         1 8F9       0.113500
     35 H11         -6.1400     1.6490     1.7030 ha         1 8F9       0.113500
     36 H12         -7.4520     2.6230    -1.0710 hc         1 8F9       0.044367
     37 H13         -8.4020     1.1490    -1.1510 hc         1 8F9       0.044367
     38 H14         -8.1820     1.9770     0.3910 hc         1 8F9       0.044367
     39 H15         -0.6140    -2.7720    -0.1360 ha         1 8F9       0.115000
     40 H16          0.2520     1.3420     0.7780 ha         1 8F9       0.123000
     41 H17          1.7280    -3.1680    -0.5470 ha         1 8F9       0.115000
     42 H18          3.7790     0.2020     1.8730 h1         1 8F9       0.082700
     43 H22          3.5070     1.3620    -1.7310 h1         1 8F9       0.070700
     44 H23         -2.6030    -1.9250    -0.4990 h1         1 8F9       0.048700
     45 H24          4.0010     3.7890    -1.5710 hc         1 8F9       0.074950
     46 H25          3.3640     3.8250     0.1350 hc         1 8F9       0.074950
     47 H26         -4.0900     0.3840     2.1060 ha         1 8F9       0.115000
     48 H27         -1.9480     0.5750     0.6930 hn         1 8F9       0.489000
     49 C11          4.1270    -2.4650    -1.2520 c3         1 8F9       0.084300
     50 C26         -7.6880     1.6990    -0.5390 c3         1 8F9      -0.048800
     51 H19          3.4320    -2.6060    -2.0770 h1         1 8F9       0.046700
     52 H20          5.1170    -2.2880    -1.6590 h1         1 8F9       0.046700
     53 H21          4.1560    -3.3820    -0.6600 h1         1 8F9       0.046700
@<TRIPOS>BOND
     1     1    13 1   
     2     1    25 1   
     3     1    26 1   
     4     1    27 1   
     5     2    15 1   
     6     2    17 1   
     7     2    28 1   
     8     2    29 1   
     9     3    16 1   
    10     3    30 1   
    11     3    31 1   
    12     3    32 1   
    13     4     5 ar  
    14     4    18 ar  
    15     4    33 1   
    16     5    19 ar  
    17     5    34 1   
    18     6    19 ar  
    19     6    20 ar  
    20     6    35 1   
    21     7     8 ar  
    22     7    12 ar  
    23     7    39 1   
    24     8     9 ar  
    25     8    23 1   
    26     9    10 ar  
    27     9    40 1   
    28    10    11 ar  
    29    10    21 1   
    30    11    12 ar  
    31    11    22 1   
    32    12    41 1   
    33    13    14 1   
    34    13    21 1   
    35    13    42 1   
    36    14    22 1   
    37    14    24 2   
    38    15    17 1   
    39    15    21 1   
    40    15    43 1   
    41    16    18 1   
    42    16    23 1   
    43    16    44 1   
    44    17    45 1   
    45    17    46 1   
    46    18    20 ar  
    47    19    50 1   
    48    20    47 1   
    49    22    49 1   
    50    23    48 1   
    51    36    50 1   
    52    37    50 1   
    53    38    50 1   
    54    49    51 1   
    55    49    52 1   
    56    49    53 1   
@<TRIPOS>SUBSTRUCTURE
     1 8F9         1 TEMP              0 ****  ****    0 ROOT
