@<TRIPOS>MOLECULE
8F9
   53    56     1     0     0
SMALL
No Charge or Current Charge


@<TRIPOS>ATOM
      1 C13          5.1490     1.5880     1.2540 c3         1 8F9      -0.074100
      2 C17          1.9700     3.1270    -1.2360 cx         1 8F9      -0.121400
      3 C20         -2.5920    -1.8060     1.6980 c3         1 8F9      -0.103100
      4 C21         -5.0460    -0.9070    -0.8950 ca         1 8F9      -0.095000
      5 C22         -6.2690    -0.2300    -1.0470 ca         1 8F9      -0.112500
      6 C24         -5.6970     1.2250     0.8100 ca         1 8F9      -0.112500
      7 C01          0.0620    -2.0060    -0.5220 ca         1 8F9      -0.183000
      8 C02         -0.3600    -0.6980    -0.2400 ca         1 8F9       0.335000
      9 C03          0.5930     0.3060    -0.0450 ca         1 8F9      -0.159000
     10 C04          1.9660     0.0300    -0.1570 ca         1 8F9       0.250000
     11 C05          2.3980    -1.2880    -0.4770 ca         1 8F9      -0.118000
     12 C06          1.4300    -2.3080    -0.6030 ca         1 8F9      -0.087000
     13 C08          4.0780     0.5090     0.9080 c6         1 8F9       0.118500
     14 C09          4.7240    -0.7640     0.2690 c          1 8F9       0.532000
     15 C14          3.0920     2.2000    -0.8230 cx         1 8F9       0.113500
     16 C16         -2.8110    -1.2730     0.2660 c3         1 8F9       0.295800
     17 C18          3.0390     3.6120    -0.2910 cx         1 8F9      -0.121400
     18 C19         -4.1380    -0.5270     0.1150 ca         1 8F9      -0.113300
     19 C23         -6.6020     0.8370    -0.1940 ca         1 8F9      -0.066300
     20 C25         -4.4740     0.5500     0.9640 ca         1 8F9      -0.095000
     21 N07          2.9330     1.0420     0.0930 nh         1 8F9      -0.724400
     22 N10          3.8080    -1.6250    -0.3850 n          1 8F9      -0.214400
     23 N15         -1.7150    -0.3800    -0.1250 nu         1 8F9      -0.984200
     24 O12          5.9300    -0.9960     0.3170 o          1 8F9      -0.547000
     25 H1           4.6970     2.4440     1.7670 hc         1 8F9       0.048367
     26 H2           5.9140     1.1820     1.9260 hc         1 8F9       0.048367
     27 H3           5.6580     1.9560     0.3560 hc         1 8F9       0.048367
     28 H4           1.9870     3.5050    -2.2550 hc         1 8F9       0.074950
     29 H5           0.9760     3.0080    -0.8220 hc         1 8F9       0.074950
     30 H6          -1.6880    -2.4240     1.7510 hc         1 8F9       0.043700
     31 H7          -2.4880    -0.9880     2.4200 hc         1 8F9       0.043700
     32 H8          -3.4420    -2.4280     2.0040 hc         1 8F9       0.043700
     33 H9          -4.8040    -1.7290    -1.5650 ha         1 8F9       0.115000
     34 H10         -6.9570    -0.5370    -1.8320 ha         1 8F9       0.113500
     35 H11         -5.9390     2.0530     1.4730 ha         1 8F9       0.113500
     36 H12         -7.8170     2.4150    -1.0530 hc         1 8F9       0.044367
     37 H13         -8.7020     0.9080    -0.7600 hc         1 8F9       0.044367
     38 H14         -8.2870     1.9650     0.5950 hc         1 8F9       0.044367
     39 H15         -0.6640    -2.8010    -0.6540 ha         1 8F9       0.115000
     40 H16          0.2630     1.2950     0.2440 ha         1 8F9       0.123000
     41 H17          1.7250    -3.3420    -0.7640 ha         1 8F9       0.115000
     42 H18          3.6740     0.1550     1.8680 h1         1 8F9       0.082700
     43 H22          3.8390     2.0130    -1.5970 h1         1 8F9       0.070700
     44 H23         -2.8320    -2.1390    -0.4110 h1         1 8F9       0.048700
     45 H24          3.7730     4.3190    -0.6690 hc         1 8F9       0.074950
     46 H25          2.7620     3.7540     0.7500 hc         1 8F9       0.074950
     47 H26         -3.7870     0.8690     1.7440 ha         1 8F9       0.115000
     48 H27         -1.9210     0.6150    -0.0470 hn         1 8F9       0.489000
     49 C11          4.3230    -2.8320    -1.0730 c3         1 8F9       0.084300
     50 C26         -7.9240     1.5710    -0.3620 c3         1 8F9      -0.048800
     51 H19          3.6960    -3.0680    -1.9420 h1         1 8F9       0.046700
     52 H20          5.3470    -2.6690    -1.4310 h1         1 8F9       0.046700
     53 H21          4.3150    -3.6820    -0.3780 h1         1 8F9       0.046700
@<TRIPOS>BOND
     1     1    13 1   
     2     1    25 1   
     3     1    26 1   
     4     1    27 1   
     5     2    15 1   
     6     2    17 1   
     7     2    28 1   
     8     2    29 1   
     9     3    16 1   
    10     3    30 1   
    11     3    31 1   
    12     3    32 1   
    13     4     5 ar  
    14     4    18 ar  
    15     4    33 1   
    16     5    19 ar  
    17     5    34 1   
    18     6    19 ar  
    19     6    20 ar  
    20     6    35 1   
    21     7     8 ar  
    22     7    12 ar  
    23     7    39 1   
    24     8     9 ar  
    25     8    23 1   
    26     9    10 ar  
    27     9    40 1   
    28    10    11 ar  
    29    10    21 1   
    30    11    12 ar  
    31    11    22 1   
    32    12    41 1   
    33    13    14 1   
    34    13    21 1   
    35    13    42 1   
    36    14    22 1   
    37    14    24 2   
    38    15    17 1   
    39    15    21 1   
    40    15    43 1   
    41    16    18 1   
    42    16    23 1   
    43    16    44 1   
    44    17    45 1   
    45    17    46 1   
    46    18    20 ar  
    47    19    50 1   
    48    20    47 1   
    49    22    49 1   
    50    23    48 1   
    51    36    50 1   
    52    37    50 1   
    53    38    50 1   
    54    49    51 1   
    55    49    52 1   
    56    49    53 1   
@<TRIPOS>SUBSTRUCTURE
     1 8F9         1 TEMP              0 ****  ****    0 ROOT
