@<TRIPOS>MOLECULE
8FB
   54    55     1     0     0
SMALL
abcg2


@<TRIPOS>ATOM
      1 O            4.7710    -2.1310    -0.6050 o          1 8FB      -0.574100
      2 C            5.1000    -0.9610    -0.4770 c          1 8FB       0.606100
      3 NAY          6.1650    -0.6060     0.2770 n          1 8FB      -0.422800
      4 CAC          6.7310     0.7270     0.3170 c3         1 8FB       0.095300
      5 CAD          6.9560    -1.6580     0.8840 c3         1 8FB       0.095300
      6 CA           4.2870     0.1650    -1.1170 c5         1 8FB       0.079500
      7 CB           3.4700     0.9270    -0.0270 c5         1 8FB      -0.082400
      8 N            3.3330    -0.3790    -2.0710 n7         1 8FB      -0.825400
      9 CD           2.0760    -0.5070    -1.3510 c5         1 8FB       0.138800
     10 CG           2.0110     0.7280    -0.4520 c5         1 8FB       0.032300
     11 SAO          0.9420     0.5850     1.0010 ss         1 8FB      -0.457000
     12 CAT         -0.6700     0.2220     0.2570 c5         1 8FB       0.082300
     13 CAV         -1.7360     0.1070     1.3480 c5         1 8FB      -0.060700
     14 CAB         -1.6630    -1.1980     2.1260 c3         1 8FB      -0.078100
     15 CAS         -1.2560     1.2570    -0.7190 c5         1 8FB       0.035500
     16 CAP         -0.9900     2.7100    -0.2900 c          1 8FB       0.734000
     17 OAE         -1.6570     3.1590     0.6630 o          1 8FB      -0.751500
     18 OAH         -0.1190     3.3360    -0.9330 o          1 8FB      -0.751500
     19 NAN         -2.6790     0.9290    -0.7470 n7         1 8FB      -0.810400
     20 CAZ         -3.0600     0.4510     0.5860 c5         1 8FB       0.203500
     21 CBA         -4.1310    -0.6420     0.5620 c3         1 8FB      -0.187700
     22 CAQ         -3.7840    -1.9750    -0.1430 c          1 8FB       0.731000
     23 OAF         -4.5150    -2.9440     0.1480 o          1 8FB      -0.748000
     24 OAI         -2.8370    -2.0010    -0.9570 o          1 8FB      -0.748000
     25 CAU         -5.4940    -0.1810     0.0180 c3         1 8FB       0.195300
     26 OAJ         -5.4390    -0.1810    -1.3990 oh         1 8FB      -0.625000
     27 CAA         -5.9530     1.1710     0.5440 c3         1 8FB      -0.130100
     28 H1           7.1330     0.9190     1.3110 h1         1 8FB       0.030200
     29 H2           7.5420     0.8490    -0.4060 h1         1 8FB       0.030200
     30 H3           5.9860     1.4930     0.1250 h1         1 8FB       0.030200
     31 H4           7.6150    -2.1480     0.1630 h1         1 8FB       0.030200
     32 H5           7.5740    -1.2260     1.6680 h1         1 8FB       0.030200
     33 H6           6.3170    -2.4150     1.3330 h1         1 8FB       0.030200
     34 H7           4.9610     0.8410    -1.6460 h1         1 8FB       0.041700
     35 H8           3.6530     0.5160     0.9700 hc         1 8FB       0.052700
     36 H9           3.7340     1.9840     0.0110 hc         1 8FB       0.052700
     37 H10          3.2100     0.2990    -2.8120 hn         1 8FB       0.399000
     38 H12          1.2390    -0.5730    -2.0470 h1         1 8FB       0.078200
     39 H13          2.0820    -1.4180    -0.7460 h1         1 8FB       0.078200
     40 H14          1.6690     1.5870    -1.0320 h1         1 8FB       0.117700
     41 H15         -0.6080    -0.7350    -0.2670 h1         1 8FB       0.076700
     42 H16         -1.5680     0.9190     2.0620 hc         1 8FB       0.057700
     43 H17         -1.7030    -2.0690     1.4740 hc         1 8FB       0.023700
     44 H18         -0.7240    -1.2500     2.6820 hc         1 8FB       0.023700
     45 H19         -2.4690    -1.2800     2.8570 hc         1 8FB       0.023700
     46 H20         -0.8450     1.1110    -1.7210 h1         1 8FB       0.030700
     47 H22         -2.7750     0.1310    -1.3620 hn         1 8FB       0.424000
     48 H24         -3.4940     1.2900     1.1320 h1         1 8FB       0.045700
     49 H25         -4.3260    -0.8850     1.6140 hc         1 8FB       0.025700
     50 H27         -6.2210    -0.9330     0.3530 h1         1 8FB       0.013700
     51 H28         -6.3140     0.0480    -1.7270 ho         1 8FB       0.393000
     52 H29         -6.9790     1.3750     0.2270 hc         1 8FB       0.026033
     53 H30         -5.9430     1.1950     1.6350 hc         1 8FB       0.026033
     54 H31         -5.3190     1.9790     0.1760 hc         1 8FB       0.026033
@<TRIPOS>BOND
     1     1     2 2   
     2     2     3 1   
     3     2     6 1   
     4     3     4 1   
     5     3     5 1   
     6     4    28 1   
     7     4    29 1   
     8     4    30 1   
     9     5    31 1   
    10     5    32 1   
    11     5    33 1   
    12     6     7 1   
    13     6     8 1   
    14     6    34 1   
    15     7    10 1   
    16     7    35 1   
    17     7    36 1   
    18     8     9 1   
    19     8    37 1   
    20     9    10 1   
    21     9    38 1   
    22     9    39 1   
    23    10    11 1   
    24    10    40 1   
    25    11    12 1   
    26    12    13 1   
    27    12    15 1   
    28    12    41 1   
    29    13    14 1   
    30    13    20 1   
    31    13    42 1   
    32    14    43 1   
    33    14    44 1   
    34    14    45 1   
    35    15    16 1   
    36    15    19 1   
    37    15    46 1   
    38    16    17 1   
    39    16    18 1   
    40    19    20 1   
    41    19    47 1   
    42    20    21 1   
    43    20    48 1   
    44    21    22 1   
    45    21    25 1   
    46    21    49 1   
    47    22    23 1   
    48    22    24 1   
    49    25    26 1   
    50    25    27 1   
    51    25    50 1   
    52    26    51 1   
    53    27    52 1   
    54    27    53 1   
    55    27    54 1   
@<TRIPOS>SUBSTRUCTURE
     1 8FB         1 TEMP              0 ****  ****    0 ROOT
