@<TRIPOS>MOLECULE
8FB
   54    55     1     0     0
SMALL
No Charge or Current Charge


@<TRIPOS>ATOM
      1 O            5.2100    -2.4760     0.0990 o          1 8FB      -0.574100
      2 C            5.2510    -1.2900    -0.2200 c          1 8FB       0.606100
      3 NAY          6.3300    -0.4580     0.1920 n          1 8FB      -0.422800
      4 CAC          6.6540     0.8230    -0.4810 c3         1 8FB       0.095300
      5 CAD          7.3630    -1.0040     1.0990 c3         1 8FB       0.095300
      6 CA           4.1210    -0.5160    -1.0350 c5         1 8FB       0.079500
      7 CB           3.3680     0.4630    -0.0590 c5         1 8FB      -0.082400
      8 N            3.0450    -1.3910    -1.6340 n7         1 8FB      -0.825400
      9 CD           1.9400    -1.3490    -0.6470 c5         1 8FB       0.138800
     10 CG           1.8710     0.1620    -0.3300 c5         1 8FB       0.032300
     11 SAO          0.9140     0.4400     1.2510 ss         1 8FB      -0.457000
     12 CAT         -0.7550     0.3620     0.4020 c5         1 8FB       0.082300
     13 CAV         -1.8770     0.3200     1.4630 c5         1 8FB      -0.060700
     14 CAB         -1.9660    -0.9840     2.2940 c3         1 8FB      -0.078100
     15 CAS         -1.1240     1.6860    -0.3410 c5         1 8FB       0.035500
     16 CAP         -0.5390     2.9860     0.3840 c          1 8FB       0.734000
     17 OAE         -1.1070     3.4730     1.3570 o          1 8FB      -0.751500
     18 OAH          0.3730     3.5920    -0.1660 o          1 8FB      -0.751500
     19 NAN         -2.6300     1.6070    -0.4790 n7         1 8FB      -0.810400
     20 CAZ         -3.1380     0.7210     0.6050 c5         1 8FB       0.203500
     21 CBA         -3.9940    -0.4480     0.0010 c3         1 8FB      -0.187700
     22 CAQ         -3.2490    -1.3010    -1.0490 c          1 8FB       0.731000
     23 OAF         -3.0970    -2.4910    -0.8170 o          1 8FB      -0.748000
     24 OAI         -2.8390    -0.7710    -2.0730 o          1 8FB      -0.748000
     25 CAU         -5.4120    -0.0760    -0.5240 c3         1 8FB       0.195300
     26 OAJ         -5.3670     0.9000    -1.5660 oh         1 8FB      -0.625000
     27 CAA         -6.3690     0.4300     0.5770 c3         1 8FB      -0.130100
     28 H1           7.6480     1.1740    -0.1770 h1         1 8FB       0.030200
     29 H2           6.6590     0.6860    -1.5700 h1         1 8FB       0.030200
     30 H3           5.9200     1.5910    -0.2080 h1         1 8FB       0.030200
     31 H4           8.0310    -1.6690     0.5380 h1         1 8FB       0.030200
     32 H5           7.9520    -0.1910     1.5410 h1         1 8FB       0.030200
     33 H6           6.8880    -1.5690     1.9110 h1         1 8FB       0.030200
     34 H7           4.6050     0.0350    -1.8510 h1         1 8FB       0.041700
     35 H8           3.6320     0.2580     0.9860 hc         1 8FB       0.052700
     36 H9           3.6090     1.5140    -0.2480 hc         1 8FB       0.052700
     37 H10          2.7130    -0.9530    -2.5030 hn         1 8FB       0.399000
     38 H12          0.9990    -1.7380    -1.0610 h1         1 8FB       0.078200
     39 H13          2.1860    -1.9360     0.2500 h1         1 8FB       0.078200
     40 H14          1.4780     0.7510    -1.1700 h1         1 8FB       0.117700
     41 H15         -0.8080    -0.5080    -0.2650 h1         1 8FB       0.076700
     42 H16         -1.7070     1.1020     2.2110 hc         1 8FB       0.057700
     43 H17         -2.0210    -1.8710     1.6550 hc         1 8FB       0.023700
     44 H18         -1.0860    -1.1000     2.9380 hc         1 8FB       0.023700
     45 H19         -2.8490    -0.9760     2.9450 hc         1 8FB       0.023700
     46 H20         -0.6800     1.6790    -1.3450 h1         1 8FB       0.030700
     47 H22         -2.8450     1.0810    -1.3420 hn         1 8FB       0.424000
     48 H24         -3.8060     1.2970     1.2600 h1         1 8FB       0.045700
     49 H25         -4.2130    -1.1300     0.8300 hc         1 8FB       0.025700
     50 H27         -5.8550    -0.9980    -0.9240 h1         1 8FB       0.013700
     51 H28         -6.2950     1.1110    -1.7950 ho         1 8FB       0.393000
     52 H29         -7.3810     0.5600     0.1760 hc         1 8FB       0.026033
     53 H30         -6.4270    -0.2920     1.4010 hc         1 8FB       0.026033
     54 H31         -6.0400     1.3920     0.9850 hc         1 8FB       0.026033
@<TRIPOS>BOND
     1     1     2 2   
     2     2     3 1   
     3     2     6 1   
     4     3     4 1   
     5     3     5 1   
     6     4    28 1   
     7     4    29 1   
     8     4    30 1   
     9     5    31 1   
    10     5    32 1   
    11     5    33 1   
    12     6     7 1   
    13     6     8 1   
    14     6    34 1   
    15     7    10 1   
    16     7    35 1   
    17     7    36 1   
    18     8     9 1   
    19     8    37 1   
    20     9    10 1   
    21     9    38 1   
    22     9    39 1   
    23    10    11 1   
    24    10    40 1   
    25    11    12 1   
    26    12    13 1   
    27    12    15 1   
    28    12    41 1   
    29    13    14 1   
    30    13    20 1   
    31    13    42 1   
    32    14    43 1   
    33    14    44 1   
    34    14    45 1   
    35    15    16 1   
    36    15    19 1   
    37    15    46 1   
    38    16    17 1   
    39    16    18 1   
    40    19    20 1   
    41    19    47 1   
    42    20    21 1   
    43    20    48 1   
    44    21    22 1   
    45    21    25 1   
    46    21    49 1   
    47    22    23 1   
    48    22    24 1   
    49    25    26 1   
    50    25    27 1   
    51    25    50 1   
    52    26    51 1   
    53    27    52 1   
    54    27    53 1   
    55    27    54 1   
@<TRIPOS>SUBSTRUCTURE
     1 8FB         1 TEMP              0 ****  ****    0 ROOT
