@<TRIPOS>MOLECULE
8FD
   51    53     1     0     0
SMALL
bcc


@<TRIPOS>ATOM
      1 N28          4.7070    -3.8500    -2.0610 n1         1 8FD      -0.364800
      2 C27          4.2270    -2.9930    -1.4590 cg         1 8FD       0.232800
      3 C23          3.6360    -1.9280    -0.7120 ca         1 8FD       0.021000
      4 C24          4.4560    -1.0560    -0.0090 ca         1 8FD      -0.133000
      5 C25          3.8820    -0.0150     0.7200 ca         1 8FD      -0.051300
      6 C31          4.7530     0.9630     1.4570 c3         1 8FD      -0.038100
      7 C32          5.4950     1.9320     0.5290 c3         1 8FD       0.179500
      8 C33          6.3880     2.8470     1.3560 c3         1 8FD      -0.089100
      9 N34          4.5300     2.7030    -0.2400 n7         1 8FD      -0.807200
     10 C35          5.1210     3.5230    -1.2790 c3         1 8FD       0.145100
     11 C22          2.2450    -1.8010    -0.7100 ca         1 8FD      -0.192000
     12 C21          1.6770    -0.7700     0.0270 ca         1 8FD       0.147100
     13 C26          2.5020     0.1150     0.7280 ca         1 8FD      -0.141000
     14 O13          0.3580    -0.5440     0.1250 os         1 8FD      -0.313900
     15 C12         -0.5440    -1.4260    -0.5350 c3         1 8FD       0.186700
     16 C08         -1.9290    -1.0320    -0.1200 ca         1 8FD      -0.078300
     17 C09         -2.7750    -0.3960    -0.9930 ca         1 8FD      -0.160300
     18 C07         -2.3580    -1.3070     1.1940 ca         1 8FD      -0.127000
     19 C06         -3.6160    -0.9450     1.5980 ca         1 8FD      -0.096000
     20 C05         -4.5010    -0.2910     0.7170 ca         1 8FD      -0.181300
     21 C04         -5.8240     0.1070     1.0880 ca         1 8FD       0.006700
     22 C11         -6.3460    -0.1600     2.4640 c3         1 8FD      -0.056800
     23 C03         -6.5870     0.7350     0.1540 ca         1 8FD      -0.293300
     24 C02         -6.0680     0.9720    -1.1560 ca         1 8FD       0.686200
     25 N02         -6.8380     1.6320    -2.0560 nv         1 8FD      -0.957500
     26 N01         -4.8610     0.6080    -1.5180 nb         1 8FD      -0.760000
     27 C10         -4.0780    -0.0120    -0.6040 ca         1 8FD       0.452600
     28 H1           5.5310    -1.1890    -0.0270 ha         1 8FD       0.145000
     29 H2           4.1490     1.5400     2.1620 hc         1 8FD       0.059700
     30 H3           5.4940     0.4150     2.0440 hc         1 8FD       0.059700
     31 H4           6.1470     1.3350    -0.1340 h1         1 8FD       0.018700
     32 H5           7.0080     3.4870     0.7300 hc         1 8FD       0.039033
     33 H6           5.7870     3.4870     2.0050 hc         1 8FD       0.039033
     34 H7           7.0610     2.2600     1.9820 hc         1 8FD       0.039033
     35 H8           3.8840     2.0630    -0.6850 hn         1 8FD       0.358800
     36 H10          5.6720     4.3610    -0.8500 h1         1 8FD       0.028367
     37 H11          5.8120     2.9790    -1.9390 h1         1 8FD       0.028367
     38 H12          4.3300     3.9430    -1.9000 h1         1 8FD       0.028367
     39 H13          1.6480    -2.5040    -1.2730 ha         1 8FD       0.147000
     40 H14          2.0410     0.9170     1.2920 ha         1 8FD       0.156000
     41 H15         -0.4240    -1.3540    -1.6210 h1         1 8FD       0.044700
     42 H16         -0.3440    -2.4610    -0.2410 h1         1 8FD       0.044700
     43 H17         -2.4590    -0.1750    -2.0060 ha         1 8FD       0.148000
     44 H18         -1.6950    -1.8170     1.8820 ha         1 8FD       0.136000
     45 H19         -3.9310    -1.1680     2.6090 ha         1 8FD       0.131000
     46 H20         -6.3490    -1.2280     2.6840 hc         1 8FD       0.049367
     47 H21         -5.7250     0.3200     3.2220 hc         1 8FD       0.049367
     48 H22         -7.3630     0.2090     2.5800 hc         1 8FD       0.049367
     49 H23         -7.5920     1.0610     0.3910 ha         1 8FD       0.137000
     50 H24         -7.8300     1.6810    -1.9030 hn         1 8FD       0.423800
     51 H25         -6.5520     1.6050    -3.0210 hn         1 8FD       0.423800
@<TRIPOS>BOND
     1     1     2 3   
     2     2     3 1   
     3     3     4 ar  
     4     3    11 ar  
     5     4     5 ar  
     6     4    28 1   
     7     5     6 1   
     8     5    13 ar  
     9     6     7 1   
    10     6    29 1   
    11     6    30 1   
    12     7     8 1   
    13     7     9 1   
    14     7    31 1   
    15     8    32 1   
    16     8    33 1   
    17     8    34 1   
    18     9    10 1   
    19     9    35 1   
    20    10    36 1   
    21    10    37 1   
    22    10    38 1   
    23    11    12 ar  
    24    11    39 1   
    25    12    13 ar  
    26    12    14 1   
    27    13    40 1   
    28    14    15 1   
    29    15    16 1   
    30    15    41 1   
    31    15    42 1   
    32    16    17 ar  
    33    16    18 ar  
    34    17    27 ar  
    35    17    43 1   
    36    18    19 ar  
    37    18    44 1   
    38    19    20 ar  
    39    19    45 1   
    40    20    21 ar  
    41    20    27 ar  
    42    21    22 1   
    43    21    23 ar  
    44    22    46 1   
    45    22    47 1   
    46    22    48 1   
    47    23    24 ar  
    48    23    49 1   
    49    24    25 1   
    50    24    26 ar  
    51    25    50 1   
    52    25    51 1   
    53    26    27 ar  
@<TRIPOS>SUBSTRUCTURE
     1 8FD         1 TEMP              0 ****  ****    0 ROOT
