@<TRIPOS>MOLECULE
8FD
   51    53     1     0     0
SMALL
No Charge or Current Charge


@<TRIPOS>ATOM
      1 N28          4.8610    -3.9180    -1.9060 n1         1 8FD      -0.454000
      2 C27          4.3620    -3.0420    -1.3140 cg         1 8FD       0.322000
      3 C23          3.7370    -1.9690    -0.5860 ca         1 8FD       0.021000
      4 C24          4.5290    -0.9850     0.0350 ca         1 8FD      -0.115000
      5 C25          3.9290     0.0700     0.7480 ca         1 8FD      -0.051300
      6 C31          4.7950     1.1350     1.4160 c3         1 8FD      -0.038100
      7 C32          5.4950     2.0740     0.4020 c3         1 8FD       0.179500
      8 C33          6.4270     3.0860     1.1070 c3         1 8FD      -0.089100
      9 N34          4.4710     2.7790    -0.3960 n7         1 8FD      -0.862400
     10 C35          4.9400     3.4100    -1.6470 c3         1 8FD       0.145100
     11 C22          2.3330    -1.9000    -0.4920 ca         1 8FD      -0.174000
     12 C21          1.7250    -0.8460     0.2240 ca         1 8FD       0.147100
     13 C26          2.5260     0.1290     0.8380 ca         1 8FD      -0.123000
     14 O13          0.3560    -0.7260     0.3510 os         1 8FD      -0.337100
     15 C12         -0.5560    -1.6700    -0.2360 c3         1 8FD       0.209900
     16 C08         -1.9770    -1.2370     0.0980 ca         1 8FD      -0.078300
     17 C09         -2.6300    -0.2750    -0.6950 ca         1 8FD      -0.077000
     18 C07         -2.6480    -1.7880     1.2020 ca         1 8FD      -0.109000
     19 C06         -3.9570    -1.3860     1.5090 ca         1 8FD      -0.078000
     20 C05         -4.6150    -0.4210     0.7120 ca         1 8FD      -0.116000
     21 C04         -5.9370    -0.0010     1.0030 ca         1 8FD       0.006700
     22 C11         -6.7410    -0.5490     2.1780 c3         1 8FD      -0.056800
     23 C03         -6.5110     0.9620     0.1580 ca         1 8FD      -0.210000
     24 C02         -5.7560     1.4480    -0.9070 ca         1 8FD       0.620900
     25 N02         -6.2000     2.3560    -1.7790 nv         1 8FD      -1.067900
     26 N01         -4.5240     1.0720    -1.2040 nb         1 8FD      -0.760000
     27 C10         -3.9420     0.1450    -0.4070 ca         1 8FD       0.322000
     28 H1           5.6140    -1.0390    -0.0360 ha         1 8FD       0.127000
     29 H2           4.1970     1.7380     2.1110 hc         1 8FD       0.059700
     30 H3           5.5610     0.6440     2.0280 hc         1 8FD       0.059700
     31 H4           6.1100     1.4460    -0.2570 h1         1 8FD       0.018700
     32 H5           6.9860     3.6840     0.3790 hc         1 8FD       0.039033
     33 H6           5.8540     3.7660     1.7490 hc         1 8FD       0.039033
     34 H7           7.1580     2.5600     1.7330 hc         1 8FD       0.039033
     35 H8           3.7650     2.0790    -0.6550 hn         1 8FD       0.414000
     36 H10          5.6720     4.2020    -1.4440 h1         1 8FD       0.028367
     37 H11          5.4080     2.6680    -2.3080 h1         1 8FD       0.028367
     38 H12          4.0980     3.8620    -2.1870 h1         1 8FD       0.028367
     39 H13          1.7350    -2.6670    -0.9770 ha         1 8FD       0.129000
     40 H14          2.0480     0.9370     1.3860 ha         1 8FD       0.138000
     41 H15         -0.4320    -1.7010    -1.3270 h1         1 8FD       0.044700
     42 H16         -0.3760    -2.6790     0.1580 h1         1 8FD       0.044700
     43 H17         -2.1130     0.1580    -1.5470 ha         1 8FD       0.130000
     44 H18         -2.1540    -2.5300     1.8270 ha         1 8FD       0.118000
     45 H19         -4.4460    -1.8340     2.3700 ha         1 8FD       0.113000
     46 H20         -6.8750    -1.6330     2.0930 hc         1 8FD       0.049367
     47 H21         -6.2380    -0.3410     3.1300 hc         1 8FD       0.049367
     48 H22         -7.7400    -0.0990     2.2320 hc         1 8FD       0.049367
     49 H23         -7.5190     1.3270     0.3250 ha         1 8FD       0.119000
     50 H24         -7.2040     2.4430    -1.8850 hn         1 8FD       0.479000
     51 H25         -5.6470     2.4360    -2.6240 hn         1 8FD       0.479000
@<TRIPOS>BOND
     1     1     2 3   
     2     2     3 1   
     3     3     4 ar  
     4     3    11 ar  
     5     4     5 ar  
     6     4    28 1   
     7     5     6 1   
     8     5    13 ar  
     9     6     7 1   
    10     6    29 1   
    11     6    30 1   
    12     7     8 1   
    13     7     9 1   
    14     7    31 1   
    15     8    32 1   
    16     8    33 1   
    17     8    34 1   
    18     9    10 1   
    19     9    35 1   
    20    10    36 1   
    21    10    37 1   
    22    10    38 1   
    23    11    12 ar  
    24    11    39 1   
    25    12    13 ar  
    26    12    14 1   
    27    13    40 1   
    28    14    15 1   
    29    15    16 1   
    30    15    41 1   
    31    15    42 1   
    32    16    17 ar  
    33    16    18 ar  
    34    17    27 ar  
    35    17    43 1   
    36    18    19 ar  
    37    18    44 1   
    38    19    20 ar  
    39    19    45 1   
    40    20    21 ar  
    41    20    27 ar  
    42    21    22 1   
    43    21    23 ar  
    44    22    46 1   
    45    22    47 1   
    46    22    48 1   
    47    23    24 ar  
    48    23    49 1   
    49    24    25 1   
    50    24    26 ar  
    51    25    50 1   
    52    25    51 1   
    53    26    27 ar  
@<TRIPOS>SUBSTRUCTURE
     1 8FD         1 TEMP              0 ****  ****    0 ROOT
