@<TRIPOS>MOLECULE
8FF
   86    89     1     0     0
SMALL
No Charge or Current Charge


@<TRIPOS>ATOM
      1 O3           7.3890     1.5510    -0.1350 o          1 8FF      -0.555100
      2 C25          6.2970     2.0660    -0.3480 c          1 8FF       0.609700
      3 C26          6.1960     3.5100    -0.6780 cc         1 8FF      -0.286600
      4 N1           7.2270     4.4540    -0.7880 na         1 8FF      -0.065000
      5 C29          6.7110     5.7100    -1.1180 cc         1 8FF      -0.172000
      6 C28          5.3580     5.5420    -1.2130 cd         1 8FF      -0.196000
      7 C27          5.0370     4.1980    -0.9450 cd         1 8FF      -0.117000
      8 C24          4.9950     1.2450    -0.2890 c3         1 8FF      -0.168400
      9 C23          5.1490    -0.2480     0.1140 c3         1 8FF      -0.067400
     10 C22          3.8130    -1.0130     0.3990 c3         1 8FF      -0.057700
     11 C30          4.0820    -2.5040     0.7880 c3         1 8FF      -0.072400
     12 C31          4.9890    -2.7150     2.0270 c3         1 8FF      -0.078400
     13 C32          5.0750    -4.1940     2.4620 c3         1 8FF      -0.075400
     14 C33          5.9820    -4.4100     3.6890 c3         1 8FF      -0.089100
     15 C20          2.7270    -0.8730    -0.7430 c3         1 8FF      -0.045700
     16 C21          3.2160    -1.4920    -2.0800 c3         1 8FF      -0.086100
     17 C17          1.2890    -1.3610    -0.3220 c5         1 8FF      -0.054700
     18 C13          0.0790    -1.1230    -1.3070 c5         1 8FF      -0.036000
     19 C18         -0.0290     0.3550    -1.8120 c3         1 8FF      -0.079100
     20 C12         -0.0430    -2.0820    -2.5630 c6         1 8FF      -0.063400
     21 C11         -1.4520    -2.0540    -3.2810 c6         1 8FF      -0.071400
     22 C9          -2.6330    -2.2910    -2.2970 c6         1 8FF      -0.041200
     23 C16          0.7620    -0.6880     1.0070 c5         1 8FF      -0.077400
     24 C15         -0.8000    -0.6580     0.9090 c5         1 8FF      -0.071400
     25 C14         -1.0780    -1.5690    -0.3180 c5         1 8FF      -0.035500
     26 C8          -2.4990    -1.5110    -0.9790 c2         1 8FF      -0.080400
     27 C7          -3.5040    -0.8730    -0.3160 ce         1 8FF      -0.189000
     28 C6          -4.9130    -0.8000    -0.7550 ce         1 8FF      -0.160000
     29 C5          -5.8940    -0.0300    -0.2160 c2         1 8FF      -0.106400
     30 C10         -7.3230    -0.0700    -0.7580 c6         1 8FF      -0.032200
     31 C4          -5.7370     0.9600     0.9420 c6         1 8FF      -0.032200
     32 C3          -6.7380     0.6460     2.0790 c6         1 8FF       0.211500
     33 O1          -6.5940     1.6070     3.1290 oh         1 8FF      -0.653500
     34 C2          -8.1820     0.6040     1.5500 c2         1 8FF      -0.198400
     35 C19         -9.2150     1.3040     2.0660 c2         1 8FF      -0.299000
     36 C1          -8.3770    -0.3250     0.3530 c6         1 8FF       0.211500
     37 O2          -8.3220    -1.6780     0.8070 oh         1 8FF      -0.653500
     38 H1           8.2140     4.2510    -0.6470 hn         1 8FF       0.362000
     39 H2           7.3340     6.5880    -1.2520 h4         1 8FF       0.148000
     40 H3           4.6440     6.3240    -1.4570 ha         1 8FF       0.136000
     41 H4           4.0310     3.7860    -0.9530 ha         1 8FF       0.133000
     42 H5           4.2990     1.7730     0.3720 hc         1 8FF       0.065700
     43 H6           4.5060     1.3630    -1.2610 hc         1 8FF       0.065700
     44 H7           5.7360    -0.7730    -0.6490 hc         1 8FF       0.053200
     45 H8           5.7550    -0.2670     1.0260 hc         1 8FF       0.053200
     46 H9           3.4010    -0.5320     1.2930 hc         1 8FF       0.045700
     47 H10          3.1310    -3.0010     1.0010 hc         1 8FF       0.040700
     48 H11          4.5250    -3.0310    -0.0650 hc         1 8FF       0.040700
     49 H12          6.0030    -2.3600     1.8100 hc         1 8FF       0.038200
     50 H13          4.6050    -2.1160     2.8620 hc         1 8FF       0.038200
     51 H14          4.0700    -4.5660     2.6940 hc         1 8FF       0.036200
     52 H15          5.4550    -4.7970     1.6280 hc         1 8FF       0.036200
     53 H16          7.0070    -4.0810     3.4770 hc         1 8FF       0.031367
     54 H17          5.6080    -3.8450     4.5520 hc         1 8FF       0.031367
     55 H18          6.0120    -5.4720     3.9610 hc         1 8FF       0.031367
     56 H19          2.6200     0.2000    -0.9340 hc         1 8FF       0.044700
     57 H20          3.0580    -2.5770    -2.0950 hc         1 8FF       0.033367
     58 H21          2.6860    -1.0460    -2.9270 hc         1 8FF       0.033367
     59 H22          4.2780    -1.3030    -2.2590 hc         1 8FF       0.033367
     60 H23          1.3780    -2.4420    -0.1630 hc         1 8FF       0.046700
     61 H24          0.6950     0.5510    -2.6110 hc         1 8FF       0.034033
     62 H25         -1.0250     0.5780    -2.2110 hc         1 8FF       0.034033
     63 H26          0.1700     1.0900    -1.0240 hc         1 8FF       0.034033
     64 H27          0.7170    -1.8420    -3.3140 hc         1 8FF       0.040200
     65 H28          0.1680    -3.1130    -2.2480 hc         1 8FF       0.040200
     66 H29         -1.5870    -1.0850    -3.7790 hc         1 8FF       0.040200
     67 H30         -1.4780    -2.8080    -4.0790 hc         1 8FF       0.040200
     68 H31         -3.5640    -2.0510    -2.8220 hc         1 8FF       0.046700
     69 H32         -2.6860    -3.3620    -2.0580 hc         1 8FF       0.046700
     70 H33          1.0940    -1.2520     1.8870 hc         1 8FF       0.040200
     71 H34          1.1480     0.3310     1.1290 hc         1 8FF       0.040200
     72 H35         -1.2750    -1.0370     1.8210 hc         1 8FF       0.045200
     73 H36         -1.1590     0.3660     0.7600 hc         1 8FF       0.045200
     74 H37         -0.9250    -2.6130    -0.0130 hc         1 8FF       0.053700
     75 H38         -3.2960    -0.3930     0.6340 ha         1 8FF       0.172000
     76 H39         -5.1880    -1.4510    -1.5830 ha         1 8FF       0.170000
     77 H40         -7.5430     0.8920    -1.2390 hc         1 8FF       0.058200
     78 H41         -7.4260    -0.8300    -1.5440 hc         1 8FF       0.058200
     79 H42         -4.7210     0.9760     1.3490 hc         1 8FF       0.058200
     80 H43         -5.9220     1.9760     0.5670 hc         1 8FF       0.058200
     81 H44         -6.4910    -0.3520     2.4710 h1         1 8FF       0.042700
     82 H45         -7.2350     1.3420     3.8220 ho         1 8FF       0.441500
     83 H46        -10.2190     1.2310     1.6450 ha         1 8FF       0.167000
     84 H47         -9.1100     1.9820     2.9130 ha         1 8FF       0.167000
     85 H48         -9.3680    -0.1350    -0.0870 h1         1 8FF       0.042700
     86 H49         -8.9450    -1.7300     1.5630 ho         1 8FF       0.441500
@<TRIPOS>BOND
     1     1     2 2   
     2     2     3 1   
     3     2     8 1   
     4     3     4 1   
     5     3     7 2   
     6     4     5 1   
     7     4    38 1   
     8     5     6 2   
     9     5    39 1   
    10     6     7 1   
    11     6    40 1   
    12     7    41 1   
    13     8     9 1   
    14     8    42 1   
    15     8    43 1   
    16     9    10 1   
    17     9    44 1   
    18     9    45 1   
    19    10    11 1   
    20    10    15 1   
    21    10    46 1   
    22    11    12 1   
    23    11    47 1   
    24    11    48 1   
    25    12    13 1   
    26    12    49 1   
    27    12    50 1   
    28    13    14 1   
    29    13    51 1   
    30    13    52 1   
    31    14    53 1   
    32    14    54 1   
    33    14    55 1   
    34    15    16 1   
    35    15    17 1   
    36    15    56 1   
    37    16    57 1   
    38    16    58 1   
    39    16    59 1   
    40    17    18 1   
    41    17    23 1   
    42    17    60 1   
    43    18    19 1   
    44    18    20 1   
    45    18    25 1   
    46    19    61 1   
    47    19    62 1   
    48    19    63 1   
    49    20    21 1   
    50    20    64 1   
    51    20    65 1   
    52    21    22 1   
    53    21    66 1   
    54    21    67 1   
    55    22    26 1   
    56    22    68 1   
    57    22    69 1   
    58    23    24 1   
    59    23    70 1   
    60    23    71 1   
    61    24    25 1   
    62    24    72 1   
    63    24    73 1   
    64    25    26 1   
    65    25    74 1   
    66    26    27 2   
    67    27    28 1   
    68    27    75 1   
    69    28    29 2   
    70    28    76 1   
    71    29    30 1   
    72    29    31 1   
    73    30    36 1   
    74    30    77 1   
    75    30    78 1   
    76    31    32 1   
    77    31    79 1   
    78    31    80 1   
    79    32    33 1   
    80    32    34 1   
    81    32    81 1   
    82    33    82 1   
    83    34    35 2   
    84    34    36 1   
    85    35    83 1   
    86    35    84 1   
    87    36    37 1   
    88    36    85 1   
    89    37    86 1   
@<TRIPOS>SUBSTRUCTURE
     1 8FF         1 TEMP              0 ****  ****    0 ROOT
