@<TRIPOS>MOLECULE
8FH
    9     8     1     0     0
SMALL
No Charge or Current Charge


@<TRIPOS>ATOM
      1 O01          2.2300     0.0020     1.0820 oh         1 8FH      -0.637000
      2 C02          0.8130     0.0240     1.3920 c3         1 8FH       0.162600
      3 C03         -0.0910     0.0190     0.1220 c3         1 8FH       0.475000
      4 Cl1         -1.8420     0.0470     0.6030 cl         1 8FH      -0.190333
      5 Cl2          0.2310     1.4780    -0.9160 cl         1 8FH      -0.190333
      6 Cl3          0.1940    -1.4730    -0.8790 cl         1 8FH      -0.190333
      7 H011         2.7150     0.0070     1.9390 ho         1 8FH       0.459000
      8 H021         0.5470    -0.8490     2.0040 h1         1 8FH       0.055700
      9 H022         0.5690     0.9170     1.9820 h1         1 8FH       0.055700
@<TRIPOS>BOND
     1     1     2 1   
     2     1     7 1   
     3     2     3 1   
     4     2     8 1   
     5     2     9 1   
     6     3     4 1   
     7     3     5 1   
     8     3     6 1   
@<TRIPOS>SUBSTRUCTURE
     1 8FH         1 TEMP              0 ****  ****    0 ROOT
