@<TRIPOS>MOLECULE
8FH
    9     8     1     0     0
SMALL
abcg2


@<TRIPOS>ATOM
      1 O01          2.1280    -0.1580     1.0640 oh         1 8FH      -0.637000
      2 C02          0.7860    -0.0590     1.4220 c3         1 8FH       0.162600
      3 C03         -0.0470     0.0250     0.1530 c3         1 8FH       0.475000
      4 CL1         -1.7580     0.1050     0.6040 cl         1 8FH      -0.190333
      5 CL2          0.3800     1.4640    -0.7810 cl         1 8FH      -0.190333
      6 CL3          0.2180    -1.4110    -0.8530 cl         1 8FH      -0.190333
      7 H011         2.6570     0.3110     1.7160 ho         1 8FH       0.459000
      8 H021         0.4360    -0.9330     1.9840 h1         1 8FH       0.055700
      9 H022         0.5660     0.8290     2.0200 h1         1 8FH       0.055700
@<TRIPOS>BOND
     1     1     2 1   
     2     1     7 1   
     3     2     3 1   
     4     2     8 1   
     5     2     9 1   
     6     3     4 1   
     7     3     5 1   
     8     3     6 1   
@<TRIPOS>SUBSTRUCTURE
     1 8FH         1 TEMP              0 ****  ****    0 ROOT
