@<TRIPOS>MOLECULE
8FI
   38    40     1     0     0
SMALL
abcg2


@<TRIPOS>ATOM
      1 C13        -21.2340    -2.8320   -17.5400 ca         1 8FI       0.397000
      2 C15        -20.0760    -2.5020   -19.6820 c3         1 8FI       0.247800
      3 C17        -18.5950    -2.3290   -21.6730 cc         1 8FI      -0.075300
      4 C20        -18.5240    -1.3190   -23.6590 ca         1 8FI      -0.064000
      5 C21        -18.5600    -1.0620   -22.2590 ca         1 8FI      -0.153000
      6 C22        -18.5520     0.2610   -21.7670 ca         1 8FI      -0.038000
      7 C24        -18.4750     1.0250   -24.0760 ca         1 8FI      -0.100000
      8 C02        -20.0550    -4.0640   -15.5910 c          1 8FI       0.726600
      9 C04        -21.2480    -3.3560   -16.2180 ca         1 8FI      -0.238600
     10 C05        -22.4050    -3.2290   -15.4650 ca         1 8FI       0.010000
     11 C06        -23.5490    -2.6100   -15.9510 ca         1 8FI      -0.307300
     12 C07        -24.7960    -2.5370   -15.1490 c3         1 8FI       0.362300
     13 C11        -23.5330    -2.1020   -17.2490 ca         1 8FI      -0.022000
     14 C12        -22.4040    -2.2080   -18.0270 ca         1 8FI      -0.258000
     15 C16        -18.6820    -2.7540   -20.2520 c3         1 8FI      -0.037200
     16 C23        -18.5090     1.2820   -22.6760 ca         1 8FI      -0.149000
     17 C25        -18.4810    -0.2460   -24.5790 ca         1 8FI      -0.093000
     18 F08        -25.7240    -3.4250   -15.5610 f          1 8FI      -0.133000
     19 F09        -24.5950    -2.7800   -13.8480 f          1 8FI      -0.133000
     20 F10        -25.3880    -1.3320   -15.2300 f          1 8FI      -0.133000
     21 N14        -20.1310    -2.9220   -18.3100 nu         1 8FI      -0.993200
     22 N18        -18.5780    -3.1810   -22.7030 na         1 8FI       0.017500
     23 N19        -18.5350    -2.6310   -23.9100 nc         1 8FI      -0.302400
     24 O01        -20.1790    -4.4550   -14.4190 o          1 8FI      -0.719500
     25 O03        -19.0290    -4.2080   -16.3040 o          1 8FI      -0.719500
     26 H1         -20.3110    -1.4360   -19.7720 h1         1 8FI       0.028200
     27 H2         -20.8150    -3.0350   -20.2930 h1         1 8FI       0.028200
     28 H3         -18.5780     0.4600   -20.7030 ha         1 8FI       0.121000
     29 H4         -18.4430     1.8660   -24.7560 ha         1 8FI       0.101000
     30 H5         -22.3860    -3.6400   -14.4650 ha         1 8FI       0.144000
     31 H6         -24.4060    -1.6150   -17.6670 ha         1 8FI       0.094000
     32 H7         -22.4250    -1.8020   -19.0290 ha         1 8FI       0.095000
     33 H8         -18.4360    -3.8160   -20.1640 hc         1 8FI       0.070700
     34 H9         -17.9430    -2.2060   -19.6620 hc         1 8FI       0.070700
     35 H10        -18.5010     2.3090   -22.3340 ha         1 8FI       0.106000
     36 H11        -18.4540    -0.4300   -25.6460 ha         1 8FI       0.117000
     37 H12        -19.3720    -3.4430   -17.8710 hn         1 8FI       0.562000
     38 H13        -18.5960    -4.1890   -22.6280 hn         1 8FI       0.369000
@<TRIPOS>BOND
     1     1     9 ar  
     2     1    14 ar  
     3     1    21 1   
     4     2    15 1   
     5     2    21 1   
     6     2    26 1   
     7     2    27 1   
     8     3     5 2   
     9     3    15 1   
    10     3    22 1   
    11     4     5 ar  
    12     4    17 ar  
    13     4    23 2   
    14     5     6 ar  
    15     6    16 ar  
    16     6    28 1   
    17     7    16 ar  
    18     7    17 ar  
    19     7    29 1   
    20     8     9 1   
    21     8    24 1   
    22     8    25 1   
    23     9    10 ar  
    24    10    11 ar  
    25    10    30 1   
    26    11    12 1   
    27    11    13 ar  
    28    12    18 1   
    29    12    19 1   
    30    12    20 1   
    31    13    14 ar  
    32    13    31 1   
    33    14    32 1   
    34    15    33 1   
    35    15    34 1   
    36    16    35 1   
    37    17    36 1   
    38    21    37 1   
    39    22    23 1   
    40    22    38 1   
@<TRIPOS>SUBSTRUCTURE
     1 8FI         1 TEMP              0 ****  ****    0 ROOT
