@<TRIPOS>MOLECULE
8FI
   38    40     1     0     0
SMALL
No Charge or Current Charge


@<TRIPOS>ATOM
      1 C13        -21.2310    -2.6460   -17.4370 ca         1 8FI       0.397000
      2 C15        -20.0040    -2.3730   -19.6580 c3         1 8FI       0.247800
      3 C17        -18.4550    -2.3310   -21.6660 cc         1 8FI      -0.075300
      4 C20        -18.4000    -1.3890   -23.6850 ca         1 8FI      -0.064000
      5 C21        -18.5240    -1.0880   -22.3500 ca         1 8FI      -0.153000
      6 C22        -18.6800     0.2200   -21.8710 ca         1 8FI      -0.038000
      7 C24        -18.5880     0.9740   -24.1980 ca         1 8FI      -0.100000
      8 C02        -20.2080    -4.3830   -15.8500 c          1 8FI       0.726600
      9 C04        -21.3320    -3.4740   -16.2980 ca         1 8FI      -0.238600
     10 C05        -22.5260    -3.4430   -15.5410 ca         1 8FI       0.010000
     11 C06        -23.5990    -2.6000   -15.8980 ca         1 8FI      -0.307300
     12 C07        -24.8820    -2.6020   -15.0600 c3         1 8FI       0.362300
     13 C11        -23.4780    -1.7820   -17.0350 ca         1 8FI      -0.022000
     14 C12        -22.3000    -1.8060   -17.7910 ca         1 8FI      -0.258000
     15 C16        -18.5740    -2.5990   -20.1870 c3         1 8FI      -0.037200
     16 C23        -18.7120     1.2630   -22.8190 ca         1 8FI      -0.149000
     17 C25        -18.4300    -0.3590   -24.6380 ca         1 8FI      -0.093000
     18 F08        -25.6750    -3.6480   -15.3810 f          1 8FI      -0.133000
     19 F09        -24.6220    -2.6940   -13.7360 f          1 8FI      -0.133000
     20 F10        -25.6200    -1.4800   -15.2300 f          1 8FI      -0.133000
     21 N14        -20.0800    -2.6410   -18.2150 nu         1 8FI      -0.993200
     22 N18        -18.2920    -3.3060   -22.6460 na         1 8FI       0.017500
     23 N19        -18.2520    -2.7560   -23.9360 nc         1 8FI      -0.302400
     24 O01        -20.2240    -4.7930   -14.6990 o          1 8FI      -0.719500
     25 O03        -19.3250    -4.6850   -16.6420 o          1 8FI      -0.719500
     26 H1         -20.3030    -1.3360   -19.8640 h1         1 8FI       0.028200
     27 H2         -20.6940    -3.0380   -20.1950 h1         1 8FI       0.028200
     28 H3         -18.7710     0.4270   -20.8070 ha         1 8FI       0.121000
     29 H4         -18.6130     1.7830   -24.9250 ha         1 8FI       0.101000
     30 H5         -22.6260    -4.0840   -14.6660 ha         1 8FI       0.144000
     31 H6         -24.2920    -1.1280   -17.3410 ha         1 8FI       0.094000
     32 H7         -22.2280    -1.1590   -18.6600 ha         1 8FI       0.095000
     33 H8         -18.2670    -3.6280   -19.9670 hc         1 8FI       0.070700
     34 H9         -17.8850    -1.9420   -19.6440 hc         1 8FI       0.070700
     35 H10        -18.8310     2.2920   -22.4880 ha         1 8FI       0.106000
     36 H11        -18.3340    -0.5830   -25.6980 ha         1 8FI       0.117000
     37 H12        -19.4360    -3.3700   -17.8680 hn         1 8FI       0.562000
     38 H13        -18.2110    -4.3080   -22.4990 hn         1 8FI       0.369000
@<TRIPOS>BOND
     1     1     9 ar  
     2     1    14 ar  
     3     1    21 1   
     4     2    15 1   
     5     2    21 1   
     6     2    26 1   
     7     2    27 1   
     8     3     5 2   
     9     3    15 1   
    10     3    22 1   
    11     4     5 ar  
    12     4    17 ar  
    13     4    23 2   
    14     5     6 ar  
    15     6    16 ar  
    16     6    28 1   
    17     7    16 ar  
    18     7    17 ar  
    19     7    29 1   
    20     8     9 1   
    21     8    24 1   
    22     8    25 1   
    23     9    10 ar  
    24    10    11 ar  
    25    10    30 1   
    26    11    12 1   
    27    11    13 ar  
    28    12    18 1   
    29    12    19 1   
    30    12    20 1   
    31    13    14 ar  
    32    13    31 1   
    33    14    32 1   
    34    15    33 1   
    35    15    34 1   
    36    16    35 1   
    37    17    36 1   
    38    21    37 1   
    39    22    23 1   
    40    22    38 1   
@<TRIPOS>SUBSTRUCTURE
     1 8FI         1 TEMP              0 ****  ****    0 ROOT
