@<TRIPOS>MOLECULE
8FK
   43    46     1     0     0
SMALL
No Charge or Current Charge


@<TRIPOS>ATOM
      1 O2          -4.9950     1.6930     0.3080 o          1 8FK      -0.542000
      2 C           -3.8900     1.1950     0.1120 c          1 8FK       0.585600
      3 C13         -3.7490    -0.3180     0.2210 ca         1 8FK      -0.114600
      4 C16         -4.5570    -0.9830     1.1750 ca         1 8FK      -0.070000
      5 C17         -4.5260    -2.3810     1.3080 ca         1 8FK      -0.103000
      6 C18         -3.6970    -3.1460     0.4760 ca         1 8FK      -0.098000
      7 C15         -2.9060    -2.5090    -0.4910 ca         1 8FK      -0.076000
      8 C14         -2.9320    -1.1090    -0.6260 ca         1 8FK      -0.093000
      9 S           -1.9140    -0.3780    -1.8830 ss         1 8FK       0.050000
     10 C2          -0.8890     0.5370    -0.7650 ca         1 8FK      -0.110000
     11 C3           0.4360     0.1200    -0.5400 ca         1 8FK      -0.080000
     12 C6           1.2550     0.8150     0.3750 ca         1 8FK      -0.029000
     13 C5           0.7130     1.9130     1.0660 ca         1 8FK      -0.141000
     14 C4          -0.6110     2.3240     0.8330 ca         1 8FK      -0.104000
     15 C1          -1.4090     1.6760    -0.1320 ca         1 8FK       0.058600
     16 N           -2.7970     2.0340    -0.2540 n          1 8FK      -0.312000
     17 C12         -3.0840     3.4830    -0.3910 c3         1 8FK       0.091300
     18 N1           2.6010     0.4560     0.6610 ns         1 8FK      -0.153000
     19 C7           3.4250    -0.5490     0.1640 c          1 8FK       0.604100
     20 O1           3.0890    -1.3950    -0.6600 o          1 8FK      -0.540100
     21 C8           4.8040    -0.4490     0.9000 c5         1 8FK       0.080300
     22 C10          5.7210     0.6180     0.2050 c5         1 8FK      -0.106400
     23 C11          6.8830    -0.2370    -0.3730 c5         1 8FK      -0.112400
     24 C9           6.9350    -1.3750     0.6650 c5         1 8FK       0.151600
     25 O            5.5440    -1.6990     0.8170 os         1 8FK      -0.420000
     26 H15         -5.2130    -0.4090     1.8270 ha         1 8FK       0.130000
     27 H16         -5.1480    -2.8700     2.0540 ha         1 8FK       0.119000
     28 H17         -3.6720    -4.2290     0.5760 ha         1 8FK       0.118000
     29 H14         -2.2700    -3.1060    -1.1420 ha         1 8FK       0.131000
     30 H            0.7990    -0.7520    -1.0740 ha         1 8FK       0.165000
     31 H2           1.3150     2.4470     1.7980 ha         1 8FK       0.113000
     32 H1          -1.0130     3.1560     1.4050 ha         1 8FK       0.123000
     33 H11         -3.9150     3.6350    -1.0910 h1         1 8FK       0.047700
     34 H12         -3.3500     3.9050     0.5860 h1         1 8FK       0.047700
     35 H13         -2.2020     4.0080    -0.7810 h1         1 8FK       0.047700
     36 H3           3.0420     1.0500     1.3500 hn         1 8FK       0.149000
     37 H4           4.6370    -0.2040     1.9580 h1         1 8FK       0.050700
     38 H7           5.2080     1.1940    -0.5750 hc         1 8FK       0.056700
     39 H8           6.0920     1.3410     0.9410 hc         1 8FK       0.056700
     40 H9           6.6470    -0.6240    -1.3710 hc         1 8FK       0.061200
     41 H10          7.8270     0.3160    -0.4430 hc         1 8FK       0.061200
     42 H5           7.4960    -2.2530     0.3180 h1         1 8FK       0.052200
     43 H6           7.3410    -1.0400     1.6300 h1         1 8FK       0.052200
@<TRIPOS>BOND
     1     1     2 2   
     2     2     3 1   
     3     2    16 1   
     4     3     4 ar  
     5     3     8 ar  
     6     4     5 ar  
     7     4    26 1   
     8     5     6 ar  
     9     5    27 1   
    10     6     7 ar  
    11     6    28 1   
    12     7     8 ar  
    13     7    29 1   
    14     8     9 1   
    15     9    10 1   
    16    10    11 ar  
    17    10    15 ar  
    18    11    12 ar  
    19    11    30 1   
    20    12    13 ar  
    21    12    18 1   
    22    13    14 ar  
    23    13    31 1   
    24    14    15 ar  
    25    14    32 1   
    26    15    16 1   
    27    16    17 1   
    28    17    33 1   
    29    17    34 1   
    30    17    35 1   
    31    18    19 1   
    32    18    36 1   
    33    19    20 2   
    34    19    21 1   
    35    21    22 1   
    36    21    25 1   
    37    21    37 1   
    38    22    23 1   
    39    22    38 1   
    40    22    39 1   
    41    23    24 1   
    42    23    40 1   
    43    23    41 1   
    44    24    25 1   
    45    24    42 1   
    46    24    43 1   
@<TRIPOS>SUBSTRUCTURE
     1 8FK         1 TEMP              0 ****  ****    0 ROOT
