@<TRIPOS>MOLECULE
8FK
   43    46     1     0     0
SMALL
abcg2


@<TRIPOS>ATOM
      1 O2          -4.9240     1.6910    -0.2220 o          1 8FK      -0.542000
      2 C           -3.8250     1.1710    -0.1210 c          1 8FK       0.585600
      3 C13         -3.7410    -0.2970     0.1540 ca         1 8FK      -0.114600
      4 C16         -4.6180    -0.8180     1.1030 ca         1 8FK      -0.070000
      5 C17         -4.6940    -2.1840     1.3200 ca         1 8FK      -0.103000
      6 C18         -3.9150    -3.0510     0.5650 ca         1 8FK      -0.098000
      7 C15         -3.0350    -2.5460    -0.3800 ca         1 8FK      -0.076000
      8 C14         -2.9400    -1.1740    -0.5780 ca         1 8FK      -0.093000
      9 S           -1.7760    -0.5460    -1.7600 ss         1 8FK       0.050000
     10 C2          -0.8080     0.3720    -0.5980 ca         1 8FK      -0.110000
     11 C3           0.5010    -0.0180    -0.3480 ca         1 8FK      -0.080000
     12 C6           1.2700     0.6880     0.5750 ca         1 8FK      -0.029000
     13 C5           0.6860     1.7600     1.2540 ca         1 8FK      -0.141000
     14 C4          -0.6220     2.1250     1.0090 ca         1 8FK      -0.104000
     15 C1          -1.3890     1.4470     0.0660 ca         1 8FK       0.058600
     16 N           -2.6890     1.9050    -0.2410 n          1 8FK      -0.312000
     17 C12         -2.8440     3.3290    -0.5270 c3         1 8FK       0.091300
     18 N1           2.5910     0.3740     0.8950 ns         1 8FK      -0.153000
     19 C7           3.4390    -0.4890     0.2770 c          1 8FK       0.604100
     20 O1           3.1390    -1.1980    -0.6590 o          1 8FK      -0.540100
     21 C8           4.8430    -0.4440     0.8590 c5         1 8FK       0.080300
     22 C10          5.6600     0.7430     0.2800 c5         1 8FK      -0.106400
     23 C11          6.8590     0.0600    -0.3850 c5         1 8FK      -0.112400
     24 C9           6.8750    -1.3080     0.2790 c5         1 8FK       0.151600
     25 O            5.5130    -1.6210     0.5040 os         1 8FK      -0.420000
     26 H15         -5.2430    -0.1460     1.6770 ha         1 8FK       0.130000
     27 H16         -5.3720    -2.5730     2.0680 ha         1 8FK       0.119000
     28 H17         -3.9810    -4.1190     0.7220 ha         1 8FK       0.118000
     29 H14         -2.4110    -3.2150    -0.9580 ha         1 8FK       0.131000
     30 H            0.8980    -0.8730    -0.8710 ha         1 8FK       0.165000
     31 H2           1.2600     2.3090     1.9890 ha         1 8FK       0.113000
     32 H1          -1.0470     2.9570     1.5560 ha         1 8FK       0.123000
     33 H11         -3.5460     3.4730    -1.3450 h1         1 8FK       0.047700
     34 H12         -3.2040     3.8840     0.3410 h1         1 8FK       0.047700
     35 H13         -1.8820     3.7320    -0.8280 h1         1 8FK       0.047700
     36 H3           2.9760     0.9030     1.6640 hn         1 8FK       0.149000
     37 H4           4.7810    -0.3490     1.9520 h1         1 8FK       0.050700
     38 H7           5.0850     1.3360    -0.4320 hc         1 8FK       0.056700
     39 H8           5.9670     1.4130     1.0830 hc         1 8FK       0.056700
     40 H9           6.7030    -0.0370    -1.4600 hc         1 8FK       0.061200
     41 H10          7.7900     0.6030    -0.2280 hc         1 8FK       0.061200
     42 H5           7.3090    -2.0930    -0.3410 h1         1 8FK       0.052200
     43 H6           7.4320    -1.2750     1.2240 h1         1 8FK       0.052200
@<TRIPOS>BOND
     1     1     2 2   
     2     2     3 1   
     3     2    16 1   
     4     3     4 ar  
     5     3     8 ar  
     6     4     5 ar  
     7     4    26 1   
     8     5     6 ar  
     9     5    27 1   
    10     6     7 ar  
    11     6    28 1   
    12     7     8 ar  
    13     7    29 1   
    14     8     9 1   
    15     9    10 1   
    16    10    11 ar  
    17    10    15 ar  
    18    11    12 ar  
    19    11    30 1   
    20    12    13 ar  
    21    12    18 1   
    22    13    14 ar  
    23    13    31 1   
    24    14    15 ar  
    25    14    32 1   
    26    15    16 1   
    27    16    17 1   
    28    17    33 1   
    29    17    34 1   
    30    17    35 1   
    31    18    19 1   
    32    18    36 1   
    33    19    20 2   
    34    19    21 1   
    35    21    22 1   
    36    21    25 1   
    37    21    37 1   
    38    22    23 1   
    39    22    38 1   
    40    22    39 1   
    41    23    24 1   
    42    23    40 1   
    43    23    41 1   
    44    24    25 1   
    45    24    42 1   
    46    24    43 1   
@<TRIPOS>SUBSTRUCTURE
     1 8FK         1 TEMP              0 ****  ****    0 ROOT
