@<TRIPOS>MOLECULE
8FM
   81    85     1     0     0
SMALL
bcc


@<TRIPOS>ATOM
      1 C4          -5.9570     1.1190    -0.2260 ca         1 8FM       0.005500
      2 C5          -4.6110     1.0820    -0.5540 ca         1 8FM      -0.340500
      3 C6          -4.1870     0.3700    -1.6750 ca         1 8FM       0.005500
      4 C7          -5.1030    -0.3250    -2.4350 ca         1 8FM      -0.218000
      5 C13         -4.7850    -0.0500     2.9170 c3         1 8FM      -0.091700
      6 C15         -5.1750    -0.2280     4.3810 c3         1 8FM      -0.087600
      7 C17         -0.4230     0.2540     1.2410 c3         1 8FM       0.117100
      8 C21          2.7310    -0.1410    -0.4700 c          1 8FM       0.760100
      9 C24          5.0050     0.1520    -1.0410 c5         1 8FM       0.181100
     10 C19          0.5500    -0.6740     0.5030 c3         1 8FM       0.091700
     11 C12         -3.4210     0.6350     2.8570 c3         1 8FM       0.234800
     12 C14         -4.8150    -1.3810     2.1770 c3         1 8FM      -0.087600
     13 C16         -1.8720    -0.1820     1.0390 c3         1 8FM       0.198800
     14 C3          -6.8830     0.4260    -0.9890 ca         1 8FM      -0.218000
     15 C2          -6.4600    -0.3120    -2.0940 ca         1 8FM       0.195100
     16 O39         -7.2740    -1.0230    -2.8810 os         1 8FM      -0.311900
     17 C40         -8.6590    -1.0520    -2.5850 c3         1 8FM       0.122700
     18 S8          -3.4250     1.9010     0.4700 sy         1 8FM       1.334200
     19 O9          -2.3290     2.2940    -0.4060 o          1 8FM      -0.610800
     20 O10         -4.1240     2.9100     1.2500 o          1 8FM      -0.610800
     21 N11         -2.8330     0.7970     1.5280 n3         1 8FM      -0.776500
     22 O18         -0.0920     0.4140     2.6010 oh         1 8FM      -0.580800
     23 N20          1.8830    -0.1230     0.5790 ns         1 8FM      -0.547900
     24 O22          2.4250    -0.3690    -1.6200 o          1 8FM      -0.587000
     25 O23          3.9720     0.1640    -0.0700 os         1 8FM      -0.424900
     26 C32          0.5220    -2.1280     1.0100 c3         1 8FM      -0.060100
     27 C33          2.8220    -3.1110     0.7300 ca         1 8FM      -0.117500
     28 C34          3.7620    -3.8300     0.0040 ca         1 8FM      -0.123500
     29 C35          3.4000    -4.4440    -1.1870 ca         1 8FM      -0.123000
     30 C36          2.0920    -4.3380    -1.6430 ca         1 8FM      -0.123500
     31 C37          1.1590    -3.6110    -0.9180 ca         1 8FM      -0.117500
     32 C38          1.5120    -2.9840     0.2740 ca         1 8FM      -0.087300
     33 C25          5.0790     1.4240    -1.9000 c5         1 8FM      -0.130700
     34 C26          6.5310     1.3980    -2.3620 c5         1 8FM      -0.072400
     35 C27          7.2170     1.1250    -1.0370 c5         1 8FM      -0.135700
     36 C28          7.0280     2.2320    -0.0000 c5         1 8FM       0.348900
     37 O29          7.2030     1.5850     1.2160 os         1 8FM      -0.397600
     38 C30          6.5510     0.3140     1.1260 c5         1 8FM       0.140400
     39 C31          6.4000     0.0100    -0.3700 c5         1 8FM      -0.099700
     40 C41          4.8800     2.6990    -1.1030 c6         1 8FM       0.165400
     41 O42          5.7350     2.7950     0.0200 os         1 8FM      -0.442600
     42 H1          -6.3080     1.6910     0.6220 ha         1 8FM       0.153000
     43 H2          -3.1470     0.3630    -1.9750 ha         1 8FM       0.153000
     44 H3          -4.7770    -0.8770    -3.3060 ha         1 8FM       0.145500
     45 H4          -5.5240     0.6150     2.4600 hc         1 8FM       0.052700
     46 H5          -4.4870    -0.9090     4.8890 hc         1 8FM       0.036200
     47 H6          -5.1630     0.7210     4.9200 hc         1 8FM       0.036200
     48 H7          -6.1780    -0.6450     4.4690 hc         1 8FM       0.036200
     49 H8          -0.3070     1.2450     0.7970 h1         1 8FM       0.119700
     50 H9           4.8610    -0.7020    -1.7070 h1         1 8FM       0.065700
     51 H10          0.2580    -0.6700    -0.5490 h1         1 8FM       0.092700
     52 H11         -3.4720     1.6040     3.3520 h1         1 8FM       0.063700
     53 H12         -2.7000     0.0470     3.4270 h1         1 8FM       0.063700
     54 H13         -4.1060    -2.0920     2.6090 hc         1 8FM       0.036200
     55 H14         -5.8070    -1.8290     2.2380 hc         1 8FM       0.036200
     56 H15         -4.5770    -1.2680     1.1180 hc         1 8FM       0.036200
     57 H16         -2.0390    -0.4000    -0.0180 h1         1 8FM       0.051200
     58 H17         -2.0760    -1.1240     1.5540 h1         1 8FM       0.051200
     59 H18         -7.9260     0.4780    -0.7070 ha         1 8FM       0.145500
     60 H19         -9.1070    -0.0580    -2.6460 h1         1 8FM       0.046367
     61 H20         -9.1190    -1.6920    -3.3320 h1         1 8FM       0.046367
     62 H21         -8.8520    -1.4700    -1.5940 h1         1 8FM       0.046367
     63 H22         -0.2490    -0.4110     3.0720 ho         1 8FM       0.393000
     64 H23          2.2760     0.0030     1.5000 hn         1 8FM       0.330500
     65 H24          0.7460    -2.1540     2.0810 hc         1 8FM       0.048200
     66 H25         -0.4850    -2.5320     0.8850 hc         1 8FM       0.048200
     67 H26          3.1110    -2.6420     1.6630 ha         1 8FM       0.126500
     68 H27          4.7770    -3.9110     0.3710 ha         1 8FM       0.130500
     69 H28          4.1300    -5.0080    -1.7530 ha         1 8FM       0.130000
     70 H29          1.7990    -4.8200    -2.5670 ha         1 8FM       0.130500
     71 H30          0.1420    -3.5270    -1.2850 ha         1 8FM       0.126500
     72 H31          4.3590     1.4090    -2.7200 hc         1 8FM       0.088700
     73 H32          6.7220     0.5890    -3.0710 hc         1 8FM       0.057200
     74 H33          6.8430     2.3310    -2.8360 hc         1 8FM       0.057200
     75 H34          8.2800     0.8960    -1.1200 hc         1 8FM       0.078700
     76 H35          7.7760     3.0290    -0.0730 h2         1 8FM       0.086700
     77 H36          7.1950    -0.4230     1.6080 h1         1 8FM       0.056200
     78 H37          5.6030     0.3270     1.6670 h1         1 8FM       0.056200
     79 H38          6.8000    -0.9800    -0.5910 hc         1 8FM       0.066700
     80 H39          5.0250     3.5510    -1.7790 h1         1 8FM       0.049700
     81 H40          3.8610     2.7750    -0.7150 h1         1 8FM       0.049700
@<TRIPOS>BOND
     1     1     2 ar  
     2     1    14 ar  
     3     1    42 1   
     4     2     3 ar  
     5     2    18 1   
     6     3     4 ar  
     7     3    43 1   
     8     4    15 ar  
     9     4    44 1   
    10     5     6 1   
    11     5    11 1   
    12     5    12 1   
    13     5    45 1   
    14     6    46 1   
    15     6    47 1   
    16     6    48 1   
    17     7    10 1   
    18     7    13 1   
    19     7    22 1   
    20     7    49 1   
    21     8    23 1   
    22     8    24 2   
    23     8    25 1   
    24     9    25 1   
    25     9    33 1   
    26     9    39 1   
    27     9    50 1   
    28    10    23 1   
    29    10    26 1   
    30    10    51 1   
    31    11    21 1   
    32    11    52 1   
    33    11    53 1   
    34    12    54 1   
    35    12    55 1   
    36    12    56 1   
    37    13    21 1   
    38    13    57 1   
    39    13    58 1   
    40    14    15 ar  
    41    14    59 1   
    42    15    16 1   
    43    16    17 1   
    44    17    60 1   
    45    17    61 1   
    46    17    62 1   
    47    18    19 2   
    48    18    20 2   
    49    18    21 1   
    50    22    63 1   
    51    23    64 1   
    52    26    32 1   
    53    26    65 1   
    54    26    66 1   
    55    27    28 ar  
    56    27    32 ar  
    57    27    67 1   
    58    28    29 ar  
    59    28    68 1   
    60    29    30 ar  
    61    29    69 1   
    62    30    31 ar  
    63    30    70 1   
    64    31    32 ar  
    65    31    71 1   
    66    33    34 1   
    67    33    40 1   
    68    33    72 1   
    69    34    35 1   
    70    34    73 1   
    71    34    74 1   
    72    35    36 1   
    73    35    39 1   
    74    35    75 1   
    75    36    37 1   
    76    36    41 1   
    77    36    76 1   
    78    37    38 1   
    79    38    39 1   
    80    38    77 1   
    81    38    78 1   
    82    39    79 1   
    83    40    41 1   
    84    40    80 1   
    85    40    81 1   
@<TRIPOS>SUBSTRUCTURE
     1 8FM         1 TEMP              0 ****  ****    0 ROOT
