@<TRIPOS>MOLECULE
8FM
   81    85     1     0     0
SMALL
No Charge or Current Charge


@<TRIPOS>ATOM
      1 C4          -4.1120    -0.0730    -0.8780 ca         1 8FM       0.023500
      2 C5          -3.1930     0.8420    -0.3280 ca         1 8FM      -0.340500
      3 C6          -2.0140     1.1620    -1.0300 ca         1 8FM       0.023500
      4 C7          -1.7440     0.5380    -2.2580 ca         1 8FM      -0.200000
      5 C13         -4.2040     1.4700     4.5030 c3         1 8FM      -0.091700
      6 C15         -3.7850     1.9370     5.9160 c3         1 8FM      -0.087600
      7 C17         -0.8680    -0.4780     1.8330 c3         1 8FM       0.140300
      8 C21          1.8850    -0.6410    -0.5780 c          1 8FM       0.644100
      9 C24          3.9550     0.1350    -1.4490 c5         1 8FM       0.204300
     10 C19         -0.1490    -1.3270     0.7410 c3         1 8FM       0.091700
     11 C12         -3.0300     0.7420     3.7890 c3         1 8FM       0.234800
     12 C14         -5.4820     0.5990     4.5680 c3         1 8FM      -0.087600
     13 C16         -2.3960    -0.8000     1.9490 c3         1 8FM       0.198800
     14 C3          -3.8310    -0.6990    -2.1040 ca         1 8FM      -0.200000
     15 C2          -2.6380    -0.3990    -2.7960 ca         1 8FM       0.195100
     16 O39         -2.3030    -0.9930    -3.9950 os         1 8FM      -0.335100
     17 C40         -3.1160    -2.0160    -4.5970 c3         1 8FM       0.145900
     18 S8          -3.5370     1.5930     1.2750 sy         1 8FM       1.192600
     19 O9          -2.5110     2.6060     1.5400 o          1 8FM      -0.540000
     20 O10         -4.9720     1.8940     1.3180 o          1 8FM      -0.540000
     21 N11         -3.2820     0.3130     2.3900 n3         1 8FM      -0.776500
     22 O18         -0.2040    -0.6310     3.1110 oh         1 8FM      -0.643000
     23 N20          1.2490    -0.9000     0.6030 ns         1 8FM      -0.480900
     24 O22          1.3710    -0.7120    -1.6830 o          1 8FM      -0.538000
     25 O23          3.1690    -0.2700    -0.2980 os         1 8FM      -0.448100
     26 C32         -0.2320    -2.8640     0.9420 c3         1 8FM      -0.060100
     27 C33          1.5460    -4.2780    -0.2150 ca         1 8FM      -0.099500
     28 C34          2.0310    -4.9710    -1.3380 ca         1 8FM      -0.105500
     29 C35          1.2680    -5.0230    -2.5170 ca         1 8FM      -0.105000
     30 C36          0.0190    -4.3810    -2.5730 ca         1 8FM      -0.105500
     31 C37         -0.4660    -3.6890    -1.4500 ca         1 8FM      -0.099500
     32 C38          0.2940    -3.6330    -0.2650 ca         1 8FM      -0.087300
     33 C25          3.4940     1.5510    -1.9720 c5         1 8FM      -0.130700
     34 C26          4.7700     1.9810    -2.7250 c5         1 8FM      -0.072400
     35 C27          5.8220     1.7340    -1.6090 c5         1 8FM      -0.135700
     36 C28          5.5590     2.6350    -0.3470 c5         1 8FM       0.395300
     37 O29          6.2480     1.8620     0.6400 os         1 8FM      -0.444000
     38 C30          5.7830     0.4910     0.4800 c5         1 8FM       0.163600
     39 C31          5.4890     0.3160    -1.0660 c5         1 8FM      -0.099700
     40 C41          3.1420     2.6090    -0.9080 c6         1 8FM       0.188600
     41 O42          4.1690     2.6370     0.0900 os         1 8FM      -0.489000
     42 H1          -5.0300    -0.3190    -0.3470 ha         1 8FM       0.135000
     43 H2          -1.2980     1.8780    -0.6290 ha         1 8FM       0.135000
     44 H3          -0.8280     0.7730    -2.7930 ha         1 8FM       0.127500
     45 H4          -4.4470     2.3780     3.9390 hc         1 8FM       0.052700
     46 H5          -3.5300     1.0800     6.5520 hc         1 8FM       0.036200
     47 H6          -2.9100     2.5970     5.8640 hc         1 8FM       0.036200
     48 H7          -4.5980     2.4930     6.3990 hc         1 8FM       0.036200
     49 H8          -0.7780     0.5660     1.5060 h1         1 8FM       0.119700
     50 H9           3.8680    -0.6240    -2.2400 h1         1 8FM       0.065700
     51 H10         -0.6590    -1.1050    -0.2060 h1         1 8FM       0.092700
     52 H11         -2.1410     1.3870     3.8280 h1         1 8FM       0.063700
     53 H12         -2.7900    -0.1400     4.4000 h1         1 8FM       0.063700
     54 H13         -5.2960    -0.3230     5.1330 hc         1 8FM       0.036200
     55 H14         -6.2970     1.1430     5.0590 hc         1 8FM       0.036200
     56 H15         -5.8210     0.3210     3.5640 hc         1 8FM       0.036200
     57 H16         -2.7450    -1.2090     0.9950 h1         1 8FM       0.051200
     58 H17         -2.5050    -1.6360     2.6530 h1         1 8FM       0.051200
     59 H18         -4.5470    -1.4140    -2.4980 ha         1 8FM       0.127500
     60 H19         -4.1180    -1.6330    -4.8280 h1         1 8FM       0.046367
     61 H20         -2.6600    -2.3610    -5.5330 h1         1 8FM       0.046367
     62 H21         -3.2130    -2.8800    -3.9270 h1         1 8FM       0.046367
     63 H22         -0.2710    -1.5740     3.3720 ho         1 8FM       0.432000
     64 H23          1.8030    -0.7710     1.4400 hn         1 8FM       0.330500
     65 H24          0.3200    -3.1470     1.8460 hc         1 8FM       0.048200
     66 H25         -1.2730    -3.1610     1.1170 hc         1 8FM       0.048200
     67 H26          2.1460    -4.2370     0.6910 ha         1 8FM       0.108500
     68 H27          2.9990    -5.4650    -1.2940 ha         1 8FM       0.112500
     69 H28          1.6450    -5.5580    -3.3860 ha         1 8FM       0.112000
     70 H29         -0.5710    -4.4180    -3.4860 ha         1 8FM       0.112500
     71 H30         -1.4310    -3.1900    -1.5040 ha         1 8FM       0.108500
     72 H31          2.6310     1.4860    -2.6450 hc         1 8FM       0.088700
     73 H32          4.9580     1.3600    -3.6100 hc         1 8FM       0.057200
     74 H33          4.7420     3.0260    -3.0580 hc         1 8FM       0.057200
     75 H34          6.8550     1.8260    -1.9630 hc         1 8FM       0.078700
     76 H35          5.9600     3.6530    -0.4450 h2         1 8FM       0.086700
     77 H36          6.5720    -0.1910     0.8220 h1         1 8FM       0.056200
     78 H37          4.9110     0.3380     1.1280 h1         1 8FM       0.056200
     79 H38          6.1100    -0.4630    -1.5210 hc         1 8FM       0.066700
     80 H39          3.0520     3.6040    -1.3680 h1         1 8FM       0.049700
     81 H40          2.1840     2.3680    -0.4240 h1         1 8FM       0.049700
@<TRIPOS>BOND
     1     1     2 ar  
     2     1    14 ar  
     3     1    42 1   
     4     2     3 ar  
     5     2    18 1   
     6     3     4 ar  
     7     3    43 1   
     8     4    15 ar  
     9     4    44 1   
    10     5     6 1   
    11     5    11 1   
    12     5    12 1   
    13     5    45 1   
    14     6    46 1   
    15     6    47 1   
    16     6    48 1   
    17     7    10 1   
    18     7    13 1   
    19     7    22 1   
    20     7    49 1   
    21     8    23 1   
    22     8    24 2   
    23     8    25 1   
    24     9    25 1   
    25     9    33 1   
    26     9    39 1   
    27     9    50 1   
    28    10    23 1   
    29    10    26 1   
    30    10    51 1   
    31    11    21 1   
    32    11    52 1   
    33    11    53 1   
    34    12    54 1   
    35    12    55 1   
    36    12    56 1   
    37    13    21 1   
    38    13    57 1   
    39    13    58 1   
    40    14    15 ar  
    41    14    59 1   
    42    15    16 1   
    43    16    17 1   
    44    17    60 1   
    45    17    61 1   
    46    17    62 1   
    47    18    19 2   
    48    18    20 2   
    49    18    21 1   
    50    22    63 1   
    51    23    64 1   
    52    26    32 1   
    53    26    65 1   
    54    26    66 1   
    55    27    28 ar  
    56    27    32 ar  
    57    27    67 1   
    58    28    29 ar  
    59    28    68 1   
    60    29    30 ar  
    61    29    69 1   
    62    30    31 ar  
    63    30    70 1   
    64    31    32 ar  
    65    31    71 1   
    66    33    34 1   
    67    33    40 1   
    68    33    72 1   
    69    34    35 1   
    70    34    73 1   
    71    34    74 1   
    72    35    36 1   
    73    35    39 1   
    74    35    75 1   
    75    36    37 1   
    76    36    41 1   
    77    36    76 1   
    78    37    38 1   
    79    38    39 1   
    80    38    77 1   
    81    38    78 1   
    82    39    79 1   
    83    40    41 1   
    84    40    80 1   
    85    40    81 1   
@<TRIPOS>SUBSTRUCTURE
     1 8FM         1 TEMP              0 ****  ****    0 ROOT
