@<TRIPOS>MOLECULE
8FN
   45    50     1     0     0
SMALL
bcc


@<TRIPOS>ATOM
      1 O1          -5.3400     1.3220    -0.8300 o          1 8FN      -0.600500
      2 O2           3.8860    -1.2600     1.0440 os         1 8FN      -0.129100
      3 N1          -3.2000     1.4820    -0.1680 n          1 8FN      -0.364000
      4 N3           2.5330    -1.2130     1.1970 nc         1 8FN      -0.368300
      5 N4           7.8970    -0.7400     0.0360 nb         1 8FN      -0.631000
      6 N5           5.8800     0.8010    -1.0850 nb         1 8FN      -0.585000
      7 C1          -4.9370    -2.6860    -1.8830 ca         1 8FN      -0.120000
      8 C2          -4.4190    -3.5020    -0.8870 ca         1 8FN      -0.114000
      9 C3          -3.7870    -2.9370     0.2110 ca         1 8FN      -0.096000
     10 C4          -3.6780    -1.5560     0.3150 ca         1 8FN       0.033900
     11 C5          -4.2200    -0.7270    -0.6670 ca         1 8FN      -0.116600
     12 C6          -4.8500    -1.3080    -1.7650 ca         1 8FN      -0.085000
     13 C7          -4.2970     0.7610    -0.5520 c          1 8FN       0.733100
     14 C8          -1.8870     0.9840    -0.0690 ca         1 8FN       0.118600
     15 C9          -0.8660     1.6010    -0.7840 ca         1 8FN      -0.164000
     16 C12         -0.2490    -0.4710     0.9500 ca         1 8FN      -0.033000
     17 C13         -1.5630    -0.0600     0.8000 ca         1 8FN      -0.029100
     18 C14          2.1600    -0.2490     0.4060 cd         1 8FN       0.614500
     19 C15          4.2150    -0.3190     0.1720 cc         1 8FN       0.480400
     20 C16          5.6200    -0.1410    -0.1870 ca         1 8FN       0.235000
     21 C10          0.4480     1.2000    -0.6280 ca         1 8FN      -0.049000
     22 C11          0.7690     0.1650     0.2460 ca         1 8FN      -0.166500
     23 S1          -2.8470    -0.8570     1.7160 ss         1 8FN      -0.204800
     24 N2           3.1950     0.3410    -0.2590 nd         1 8FN      -0.673000
     25 C19          7.1440     0.9720    -1.4210 ca         1 8FN       0.285900
     26 C18          8.1570     0.1980    -0.8600 ca         1 8FN       0.309900
     27 C17          6.6290    -0.9150     0.3790 ca         1 8FN       0.334900
     28 C20         -3.3640     2.9120    -0.0860 cx         1 8FN       0.034700
     29 C22         -4.1580     3.4750     1.0460 cx         1 8FN      -0.123900
     30 C21         -2.6710     3.6350     1.0230 cx         1 8FN      -0.123900
     31 H2          -4.4960    -4.5780    -0.9670 ha         1 8FN       0.137000
     32 H3          -3.3660    -3.5670     0.9840 ha         1 8FN       0.148000
     33 H4          -5.2800    -0.6780    -2.5330 ha         1 8FN       0.150000
     34 H5          -1.0950     2.4090    -1.4660 ha         1 8FN       0.148000
     35 H6          -0.0270    -1.2900     1.6220 ha         1 8FN       0.164000
     36 H7           1.2240     1.6950    -1.1950 ha         1 8FN       0.162000
     37 H8           7.3700     1.7370    -2.1530 h4         1 8FN       0.041100
     38 H9           9.1900     0.3490    -1.1460 h4         1 8FN       0.038100
     39 H10          6.4200    -1.6830     1.1130 h4         1 8FN       0.050100
     40 H11         -3.4370     3.4190    -1.0420 h1         1 8FN       0.088700
     41 H12         -4.7850     4.3320     0.8390 hc         1 8FN       0.081700
     42 H13         -4.5730     2.7770     1.7620 hc         1 8FN       0.081700
     43 H14         -2.0910     3.0530     1.7290 hc         1 8FN       0.081700
     44 H15         -2.2490     4.6040     0.7910 hc         1 8FN       0.081700
     45 H1          -5.4180    -3.1220    -2.7480 ha         1 8FN       0.138000
@<TRIPOS>BOND
     1     1    13 2   
     2     2     4 1   
     3     2    19 1   
     4     3    13 1   
     5     3    14 1   
     6     3    28 1   
     7     4    18 2   
     8     5    26 ar  
     9     5    27 ar  
    10     6    20 ar  
    11     6    25 ar  
    12     7     8 ar  
    13     7    12 ar  
    14     7    45 1   
    15     8     9 ar  
    16     8    31 1   
    17     9    10 ar  
    18     9    32 1   
    19    10    11 ar  
    20    10    23 1   
    21    11    12 ar  
    22    11    13 1   
    23    12    33 1   
    24    14    15 ar  
    25    14    17 ar  
    26    15    21 ar  
    27    15    34 1   
    28    16    17 ar  
    29    16    22 ar  
    30    16    35 1   
    31    17    23 1   
    32    18    22 1   
    33    18    24 1   
    34    19    20 1   
    35    19    24 2   
    36    20    27 ar  
    37    21    22 ar  
    38    21    36 1   
    39    25    26 ar  
    40    25    37 1   
    41    26    38 1   
    42    27    39 1   
    43    28    29 1   
    44    28    30 1   
    45    28    40 1   
    46    29    30 1   
    47    29    41 1   
    48    29    42 1   
    49    30    43 1   
    50    30    44 1   
@<TRIPOS>SUBSTRUCTURE
     1 8FN         1 TEMP              0 ****  ****    0 ROOT
