@<TRIPOS>MOLECULE
8FN
   45    50     1     0     0
SMALL
No Charge or Current Charge


@<TRIPOS>ATOM
      1 O1          -5.3330     1.3680    -1.1530 o          1 8FN      -0.525000
      2 O2           3.9260    -1.3140     1.0070 os         1 8FN      -0.084700
      3 N1          -3.2620     1.5600    -0.1910 n          1 8FN      -0.297000
      4 N3           2.5280    -1.2220     1.1720 nc         1 8FN      -0.368300
      5 N4           8.0190    -0.5630     0.3230 nb         1 8FN      -0.631000
      6 N5           6.0030     0.4860    -1.4320 nb         1 8FN      -0.585000
      7 C1          -4.9290    -2.7840    -1.9230 ca         1 8FN      -0.102000
      8 C2          -4.3290    -3.5510    -0.9150 ca         1 8FN      -0.096000
      9 C3          -3.7120    -2.9140     0.1710 ca         1 8FN      -0.078000
     10 C4          -3.6810    -1.5090     0.2520 ca         1 8FN      -0.093000
     11 C5          -4.2640    -0.7190    -0.7740 ca         1 8FN      -0.116600
     12 C6          -4.9040    -1.3810    -1.8470 ca         1 8FN      -0.067000
     13 C7          -4.3240     0.8010    -0.7450 c          1 8FN       0.590600
     14 C8          -1.9190     1.0740    -0.0860 ca         1 8FN       0.118600
     15 C9          -0.8890     1.6930    -0.8150 ca         1 8FN      -0.146000
     16 C12         -0.2710    -0.4020     0.9410 ca         1 8FN      -0.015000
     17 C13         -1.6000     0.0320     0.7940 ca         1 8FN      -0.156000
     18 C14          2.1700    -0.2400     0.3570 cd         1 8FN       0.614500
     19 C15          4.2550    -0.3640     0.0870 cc         1 8FN       0.436000
     20 C16          5.6760    -0.1880    -0.2800 ca         1 8FN       0.235000
     21 C10          0.4430     1.2660    -0.6740 ca         1 8FN      -0.031000
     22 C11          0.7700     0.2120     0.2080 ca         1 8FN      -0.166500
     23 S1          -2.9030    -0.7790     1.6800 ss         1 8FN       0.049000
     24 N2           3.2130     0.3330    -0.3350 nd         1 8FN      -0.673000
     25 C19          7.3330     0.6200    -1.6910 ca         1 8FN       0.285900
     26 C18          8.3280     0.1010    -0.8250 ca         1 8FN       0.309900
     27 C17          6.6870    -0.6970     0.5830 ca         1 8FN       0.334900
     28 C20         -3.4600     2.9820     0.0910 cx         1 8FN       0.034700
     29 C22         -4.3170     3.4650     1.2380 cx         1 8FN      -0.123900
     30 C21         -2.8250     3.6830     1.2710 cx         1 8FN      -0.123900
     31 H2          -4.3500    -4.6380    -0.9700 ha         1 8FN       0.119000
     32 H3          -3.2580    -3.5130     0.9580 ha         1 8FN       0.130000
     33 H4          -5.3800    -0.8040    -2.6370 ha         1 8FN       0.132000
     34 H5          -1.1190     2.5120    -1.4920 ha         1 8FN       0.130000
     35 H6          -0.0580    -1.2230     1.6250 ha         1 8FN       0.146000
     36 H7           1.2190     1.7640    -1.2540 ha         1 8FN       0.144000
     37 H8           7.6070     1.1490    -2.6020 h4         1 8FN       0.041100
     38 H9           9.3860     0.2210    -1.0550 h4         1 8FN       0.038100
     39 H10          6.4310    -1.2210     1.5040 h4         1 8FN       0.050100
     40 H11         -3.5180     3.5210    -0.8560 h1         1 8FN       0.088700
     41 H12         -4.9550     4.3270     1.0620 hc         1 8FN       0.081700
     42 H13         -4.7350     2.7170     1.9080 hc         1 8FN       0.081700
     43 H14         -2.2420     3.0850     1.9670 hc         1 8FN       0.081700
     44 H15         -2.4540     4.6930     1.1160 hc         1 8FN       0.081700
     45 H1          -5.4170    -3.2740    -2.7620 ha         1 8FN       0.120000
@<TRIPOS>BOND
     1     1    13 2   
     2     2     4 1   
     3     2    19 1   
     4     3    13 1   
     5     3    14 1   
     6     3    28 1   
     7     4    18 2   
     8     5    26 ar  
     9     5    27 ar  
    10     6    20 ar  
    11     6    25 ar  
    12     7     8 ar  
    13     7    12 ar  
    14     7    45 1   
    15     8     9 ar  
    16     8    31 1   
    17     9    10 ar  
    18     9    32 1   
    19    10    11 ar  
    20    10    23 1   
    21    11    12 ar  
    22    11    13 1   
    23    12    33 1   
    24    14    15 ar  
    25    14    17 ar  
    26    15    21 ar  
    27    15    34 1   
    28    16    17 ar  
    29    16    22 ar  
    30    16    35 1   
    31    17    23 1   
    32    18    22 1   
    33    18    24 1   
    34    19    20 1   
    35    19    24 2   
    36    20    27 ar  
    37    21    22 ar  
    38    21    36 1   
    39    25    26 ar  
    40    25    37 1   
    41    26    38 1   
    42    27    39 1   
    43    28    29 1   
    44    28    30 1   
    45    28    40 1   
    46    29    30 1   
    47    29    41 1   
    48    29    42 1   
    49    30    43 1   
    50    30    44 1   
@<TRIPOS>SUBSTRUCTURE
     1 8FN         1 TEMP              0 ****  ****    0 ROOT
