@<TRIPOS>MOLECULE
8FO
   39    40     1     0     0
SMALL
abcg2


@<TRIPOS>ATOM
      1 C4          -8.0330    -7.1220    -2.8750 ca         1 8FO       0.160000
      2 C5          -7.2320    -6.9540    -1.7630 ca         1 8FO      -0.126000
      3 C6          -6.8460    -8.0730    -1.0320 cp         1 8FO       0.001000
      4 C8          -5.9220    -7.9450     0.1230 cp         1 8FO      -0.044000
      5 C10         -3.6620    -8.2120     0.9590 ca         1 8FO      -0.076000
      6 C13         -6.3020    -7.4890     1.3880 ca         1 8FO      -0.183300
      7 C15         -3.0290    -7.6320     3.3350 c3         1 8FO      -0.174400
      8 C17         -2.3080    -8.9490     3.6200 c3         1 8FO      -0.051400
      9 C1          -7.2770    -9.3290    -1.4470 ca         1 8FO      -0.107000
     10 C11         -4.0350    -7.7580     2.2210 ca         1 8FO       0.002700
     11 C12         -5.3650    -7.3990     2.4130 ca         1 8FO      -0.076000
     12 C14         -7.7220    -7.0850     1.6570 c3         1 8FO       0.353300
     13 C16         -2.0670    -6.4630     2.9730 c          1 8FO       0.726000
     14 C18         -3.2490   -10.0530     4.0820 c3         1 8FO      -0.093100
     15 C2          -8.0860    -9.4600    -2.5660 ca         1 8FO      -0.095000
     16 C3          -8.4890    -8.3570    -3.3120 ca         1 8FO      -0.125300
     17 C9          -4.5900    -8.3080    -0.0630 ca         1 8FO      -0.113000
     18 F1          -8.3820    -6.0290    -3.5770 f          1 8FO      -0.189000
     19 F2          -8.0310    -5.9170     1.0720 f          1 8FO      -0.123000
     20 F3          -8.6060    -7.9850     1.2080 f          1 8FO      -0.123000
     21 F4          -7.9680    -6.9270     2.9620 f          1 8FO      -0.123000
     22 O1          -2.4350    -5.3280     3.3280 o          1 8FO      -0.716500
     23 O2          -1.0380    -6.7570     2.3350 o          1 8FO      -0.716500
     24 H1          -6.8970    -5.9630    -1.4870 ha         1 8FO       0.145000
     25 H2          -8.8500    -8.1230    -5.4230 hc         1 8FO       0.039700
     26 H3          -9.6210    -9.5280    -4.6970 hc         1 8FO       0.039700
     27 H4         -10.2820    -7.9190    -4.4270 hc         1 8FO       0.039700
     28 H5          -2.6340    -8.4900     0.7660 ha         1 8FO       0.140000
     29 H6          -3.5740    -7.3430     4.2400 hc         1 8FO       0.044700
     30 H7          -1.7580    -9.2770     2.7360 hc         1 8FO       0.043700
     31 H8          -1.5540    -8.7720     4.3920 hc         1 8FO       0.043700
     32 H9          -6.9810   -10.2090    -0.8910 ha         1 8FO       0.122000
     33 H10         -5.6650    -7.0540     3.3940 ha         1 8FO       0.129000
     34 H11         -2.7020   -10.9670     4.3130 hc         1 8FO       0.016367
     35 H12         -3.7930    -9.7590     4.9820 hc         1 8FO       0.016367
     36 H13         -3.9890   -10.2980     3.3180 hc         1 8FO       0.016367
     37 H14         -8.4160   -10.4460    -2.8710 ha         1 8FO       0.106000
     38 H15         -4.2780    -8.6640    -1.0370 ha         1 8FO       0.105000
     39 C7          -9.3560    -8.4860    -4.5270 c3         1 8FO      -0.034800
@<TRIPOS>BOND
     1     1     2 ar  
     2     1    16 ar  
     3     1    18 1   
     4     2     3 ar  
     5     2    24 1   
     6     3     4 1   
     7     3     9 ar  
     8     4     6 ar  
     9     4    17 ar  
    10     5    10 ar  
    11     5    17 ar  
    12     5    28 1   
    13     6    11 ar  
    14     6    12 1   
    15     7     8 1   
    16     7    10 1   
    17     7    13 1   
    18     7    29 1   
    19     8    14 1   
    20     8    30 1   
    21     8    31 1   
    22     9    15 ar  
    23     9    32 1   
    24    10    11 ar  
    25    11    33 1   
    26    12    19 1   
    27    12    20 1   
    28    12    21 1   
    29    13    22 1   
    30    13    23 1   
    31    14    34 1   
    32    14    35 1   
    33    14    36 1   
    34    15    16 ar  
    35    15    37 1   
    36    16    39 1   
    37    17    38 1   
    38    25    39 1   
    39    26    39 1   
    40    27    39 1   
@<TRIPOS>SUBSTRUCTURE
     1 8FO         1 TEMP              0 ****  ****    0 ROOT
