@<TRIPOS>MOLECULE
8FO
   39    40     1     0     0
SMALL
No Charge or Current Charge


@<TRIPOS>ATOM
      1 C4          -8.1790    -7.1010    -2.8550 ca         1 8FO       0.160000
      2 C5          -7.3220    -6.9650    -1.7540 ca         1 8FO      -0.126000
      3 C6          -6.8060    -8.1030    -1.0930 cp         1 8FO       0.001000
      4 C8          -5.8860    -7.9710     0.0750 cp         1 8FO      -0.044000
      5 C10         -3.6290    -8.3160     0.9780 ca         1 8FO      -0.076000
      6 C13         -6.2910    -7.4100     1.3250 ca         1 8FO      -0.183300
      7 C15         -3.0140    -7.6140     3.3650 c3         1 8FO      -0.174400
      8 C17         -2.2830    -8.9410     3.7110 c3         1 8FO      -0.051400
      9 C1          -7.1600    -9.3800    -1.5870 ca         1 8FO      -0.107000
     10 C11         -4.0100    -7.7460     2.2050 ca         1 8FO       0.002700
     11 C12         -5.3350    -7.2950     2.3650 ca         1 8FO      -0.076000
     12 C14         -7.7340    -6.9310     1.5840 c3         1 8FO       0.353300
     13 C16         -2.0160    -6.4630     3.1050 c          1 8FO       0.726000
     14 C18         -3.2350   -10.0890     4.1070 c3         1 8FO      -0.093100
     15 C2          -8.0190    -9.5190    -2.6910 ca         1 8FO      -0.095000
     16 C3          -8.5380    -8.3780    -3.3330 ca         1 8FO      -0.125300
     17 C9          -4.5560    -8.4250    -0.0670 ca         1 8FO      -0.113000
     18 F1          -8.6570    -5.9890    -3.4600 f          1 8FO      -0.189000
     19 F2          -7.9590    -5.7120     1.0440 f          1 8FO      -0.123000
     20 F3          -8.6610    -7.7720     1.0710 f          1 8FO      -0.123000
     21 F4          -8.0220    -6.8240     2.9030 f          1 8FO      -0.123000
     22 O1          -2.0570    -5.4900     3.8440 o          1 8FO      -0.716500
     23 O2          -1.2380    -6.5580     2.1660 o          1 8FO      -0.716500
     24 H1          -7.0470    -5.9710    -1.4120 ha         1 8FO       0.145000
     25 H2          -9.0410    -8.0540    -5.4220 hc         1 8FO       0.039700
     26 H3          -9.6600    -9.5790    -4.7720 hc         1 8FO       0.039700
     27 H4         -10.4390    -8.0530    -4.3340 hc         1 8FO       0.039700
     28 H5          -2.6110    -8.6650     0.8250 ha         1 8FO       0.140000
     29 H6          -3.5790    -7.3350     4.2630 hc         1 8FO       0.044700
     30 H7          -1.6610    -9.2640     2.8670 hc         1 8FO       0.043700
     31 H8          -1.5960    -8.7560     4.5460 hc         1 8FO       0.043700
     32 H9          -6.7670   -10.2700    -1.1000 ha         1 8FO       0.122000
     33 H10         -5.6200    -6.8550     3.3180 ha         1 8FO       0.129000
     34 H11         -2.6600   -10.9810     4.3830 hc         1 8FO       0.016367
     35 H12         -3.8540    -9.8010     4.9640 hc         1 8FO       0.016367
     36 H13         -3.8970   -10.3550     3.2740 hc         1 8FO       0.016367
     37 H14         -8.2780   -10.5140    -3.0450 ha         1 8FO       0.106000
     38 H15         -4.2380    -8.8590    -1.0130 ha         1 8FO       0.105000
     39 C7          -9.4700    -8.5260    -4.5300 c3         1 8FO      -0.034800
@<TRIPOS>BOND
     1     1     2 ar  
     2     1    16 ar  
     3     1    18 1   
     4     2     3 ar  
     5     2    24 1   
     6     3     4 1   
     7     3     9 ar  
     8     4     6 ar  
     9     4    17 ar  
    10     5    10 ar  
    11     5    17 ar  
    12     5    28 1   
    13     6    11 ar  
    14     6    12 1   
    15     7     8 1   
    16     7    10 1   
    17     7    13 1   
    18     7    29 1   
    19     8    14 1   
    20     8    30 1   
    21     8    31 1   
    22     9    15 ar  
    23     9    32 1   
    24    10    11 ar  
    25    11    33 1   
    26    12    19 1   
    27    12    20 1   
    28    12    21 1   
    29    13    22 1   
    30    13    23 1   
    31    14    34 1   
    32    14    35 1   
    33    14    36 1   
    34    15    16 ar  
    35    15    37 1   
    36    16    39 1   
    37    17    38 1   
    38    25    39 1   
    39    26    39 1   
    40    27    39 1   
@<TRIPOS>SUBSTRUCTURE
     1 8FO         1 TEMP              0 ****  ****    0 ROOT
