@<TRIPOS>MOLECULE
8FP
   93    97     1     0     0
SMALL
No Charge or Current Charge


@<TRIPOS>ATOM
      1 C2          -0.8830     2.2470    -0.7450 ca         1 8FP       0.197100
      2 O39          0.4880     2.3950    -0.7090 os         1 8FP      -0.322100
      3 C40          1.1790     2.8680     0.4600 c3         1 8FP       0.145900
      4 C3          -1.4470     1.6590    -1.8870 ca         1 8FP      -0.197000
      5 C4          -2.8330     1.4520    -1.9760 ca         1 8FP       0.019500
      6 C5          -3.6670     1.8440    -0.9100 ca         1 8FP      -0.335500
      7 C6          -3.1110     2.4610     0.2280 ca         1 8FP       0.019500
      8 C7          -1.7220     2.6560     0.3130 ca         1 8FP      -0.197000
      9 S8          -5.4310     1.5030    -0.9680 sy         1 8FP       1.189600
     10 O9          -6.1040     2.6190    -0.2950 o          1 8FP      -0.546500
     11 O10         -5.8120     1.0540    -2.3110 o          1 8FP      -0.546500
     12 N11         -5.5900     0.1660     0.0860 n3         1 8FP      -0.785500
     13 C12         -6.9750    -0.1640     0.5120 c3         1 8FP       0.237800
     14 C13         -7.9830    -0.6580    -0.5730 c3         1 8FP      -0.093700
     15 C14         -7.5500    -1.9480    -1.3130 c3         1 8FP      -0.087100
     16 C15         -9.3890    -0.8410     0.0450 c3         1 8FP      -0.087100
     17 C16         -4.6810    -0.9950    -0.1470 c3         1 8FP       0.194800
     18 C17         -3.3710    -0.9120     0.6830 c3         1 8FP       0.133300
     19 O18         -3.7040    -0.3970     1.9830 oh         1 8FP      -0.651000
     20 C19         -2.5570    -2.2370     0.7770 c3         1 8FP       0.078700
     21 N20         -1.1810    -1.9340     1.1930 ns         1 8FP      -0.496900
     22 C21         -0.1890    -1.4970     0.3420 c          1 8FP       0.618700
     23 O22         -0.3490    -1.5000    -0.8700 o          1 8FP      -0.581100
     24 C32         -3.1840    -3.3360     1.6760 c3         1 8FP      -0.051100
     25 C33         -1.5950    -4.9560     2.8350 ca         1 8FP      -0.100500
     26 C34         -0.8250    -6.1320     2.8480 ca         1 8FP      -0.105000
     27 C35         -0.8120    -6.9770     1.7250 ca         1 8FP      -0.101000
     28 C36         -1.5690    -6.6440     0.5890 ca         1 8FP      -0.105000
     29 C37         -2.3380    -5.4670     0.5760 ca         1 8FP      -0.100500
     30 C38         -2.3550    -4.6160     1.6990 ca         1 8FP      -0.084300
     31 C51          1.0850    -0.9930     0.9840 ca         1 8FP      -0.154600
     32 C52          1.2640    -0.9640     2.3880 ca         1 8FP      -0.078000
     33 C53          2.4450    -0.4450     2.9400 ca         1 8FP      -0.130000
     34 C54          3.4670     0.0370     2.1090 ca         1 8FP      -0.067000
     35 C55          3.3270    -0.0110     0.7060 ca         1 8FP      -0.151600
     36 C56          2.1250    -0.5080     0.1590 ca         1 8FP      -0.016000
     37 C58          4.3910     0.5240    -0.2260 c          1 8FP       0.610700
     38 O59          4.0810     1.0700    -1.2760 o          1 8FP      -0.566100
     39 N60          5.7440     0.4680     0.1730 n          1 8FP      -0.422800
     40 C61          6.2850    -0.6550     0.9780 c5         1 8FP       0.106000
     41 C69          7.7540    -0.7360     0.4900 c5         1 8FP      -0.099400
     42 C70          8.0710     0.7510     0.2050 c5         1 8FP      -0.084400
     43 C62          6.8090     1.1690    -0.5980 c5         1 8FP       0.069400
     44 C63          6.6900     2.6840    -0.6770 cc         1 8FP       0.442700
     45 N64          7.1380     3.4030    -1.7020 nd         1 8FP      -0.638000
     46 C65          6.8980     4.7480    -1.4820 cd         1 8FP       0.299300
     47 C66          6.2800     5.0410    -0.2910 cc         1 8FP      -0.269000
     48 S67          5.9670     3.5990     0.6290 ss         1 8FP      -0.039400
     49 C68          7.3160     5.7510    -2.5170 c3         1 8FP      -0.118400
     50 H1           2.2610     2.8870     0.2800 h1         1 8FP       0.045367
     51 H2           0.8600     3.8860     0.7180 h1         1 8FP       0.045367
     52 H3           0.9890     2.2090     1.3170 h1         1 8FP       0.045367
     53 H4          -0.8010     1.3430    -2.7020 ha         1 8FP       0.135000
     54 H5          -3.2470     0.9730    -2.8620 ha         1 8FP       0.135500
     55 H6          -3.7470     2.7630     1.0590 ha         1 8FP       0.135500
     56 H7          -1.3160     3.1180     1.2070 ha         1 8FP       0.135000
     57 H8          -6.9330    -0.9280     1.3000 h1         1 8FP       0.060200
     58 H9          -7.4150     0.7220     0.9890 h1         1 8FP       0.060200
     59 H10         -8.0840     0.1320    -1.3260 hc         1 8FP       0.064700
     60 H11         -7.3550    -2.7610    -0.6040 hc         1 8FP       0.035700
     61 H12         -8.3360    -2.2790    -2.0030 hc         1 8FP       0.035700
     62 H13         -6.6480    -1.7770    -1.9110 hc         1 8FP       0.035700
     63 H14         -9.7320     0.0880     0.5160 hc         1 8FP       0.035700
     64 H15        -10.1200    -1.1170    -0.7240 hc         1 8FP       0.035700
     65 H16         -9.3810    -1.6290     0.8090 hc         1 8FP       0.035700
     66 H17         -5.1880    -1.9230     0.1430 h1         1 8FP       0.058700
     67 H18         -4.4310    -1.0990    -1.2120 h1         1 8FP       0.058700
     68 H19         -2.7170    -0.1990     0.1700 h1         1 8FP       0.096700
     69 H20         -4.5340     0.1080     1.8130 ho         1 8FP       0.437000
     70 H21         -2.5070    -2.6530    -0.2390 h1         1 8FP       0.092700
     71 H22         -0.9820    -1.9010     2.1830 hn         1 8FP       0.318500
     72 H23         -3.3040    -2.9490     2.6950 hc         1 8FP       0.048700
     73 H24         -4.1950    -3.5670     1.3200 hc         1 8FP       0.048700
     74 H26         -0.2390    -6.3880     3.7280 ha         1 8FP       0.112000
     75 H27         -0.2160    -7.8870     1.7350 ha         1 8FP       0.115000
     76 H28         -1.5590    -7.2970    -0.2810 ha         1 8FP       0.112000
     77 H29         -2.9210    -5.2170    -0.3070 ha         1 8FP       0.106500
     78 H30          0.4930    -1.3200     3.0660 ha         1 8FP       0.118000
     79 H31          2.5640    -0.4040     4.0200 ha         1 8FP       0.119000
     80 H32          4.3490     0.4790     2.5660 ha         1 8FP       0.122000
     81 H33          2.0000    -0.5160    -0.9230 ha         1 8FP       0.150000
     82 H34          6.2540    -0.4210     2.0500 h1         1 8FP       0.052200
     83 H35          5.7420    -1.5950     0.8090 h1         1 8FP       0.052200
     84 H36          8.4200    -1.1790     1.2390 hc         1 8FP       0.057700
     85 H37          7.8350    -1.3410    -0.4210 hc         1 8FP       0.057700
     86 H38          8.1720     1.3230     1.1360 hc         1 8FP       0.063700
     87 H39          8.9950     0.8870    -0.3680 hc         1 8FP       0.063700
     88 H40          6.8530     0.7660    -1.6190 h1         1 8FP       0.094700
     89 H41          5.9930     6.0070     0.1020 h4         1 8FP       0.158000
     90 H42          6.8190     5.5560    -3.4740 hc         1 8FP       0.049367
     91 H43          7.0600     6.7710    -2.2070 hc         1 8FP       0.049367
     92 H44          8.3990     5.7140    -2.6830 hc         1 8FP       0.049367
     93 H25         -1.5960    -4.3080     3.7090 ha         1 8FP       0.106500
@<TRIPOS>BOND
     1     1     2 1   
     2     1     4 ar  
     3     1     8 ar  
     4     2     3 1   
     5     3    50 1   
     6     3    51 1   
     7     3    52 1   
     8     4     5 ar  
     9     4    53 1   
    10     5     6 ar  
    11     5    54 1   
    12     6     7 ar  
    13     6     9 1   
    14     7     8 ar  
    15     7    55 1   
    16     8    56 1   
    17     9    10 2   
    18     9    11 2   
    19     9    12 1   
    20    12    13 1   
    21    12    17 1   
    22    13    14 1   
    23    13    57 1   
    24    13    58 1   
    25    14    15 1   
    26    14    16 1   
    27    14    59 1   
    28    15    60 1   
    29    15    61 1   
    30    15    62 1   
    31    16    63 1   
    32    16    64 1   
    33    16    65 1   
    34    17    18 1   
    35    17    66 1   
    36    17    67 1   
    37    18    19 1   
    38    18    20 1   
    39    18    68 1   
    40    19    69 1   
    41    20    21 1   
    42    20    24 1   
    43    20    70 1   
    44    21    22 1   
    45    21    71 1   
    46    22    23 2   
    47    22    31 1   
    48    24    30 1   
    49    24    72 1   
    50    24    73 1   
    51    25    26 ar  
    52    25    30 ar  
    53    25    93 1   
    54    26    27 ar  
    55    26    74 1   
    56    27    28 ar  
    57    27    75 1   
    58    28    29 ar  
    59    28    76 1   
    60    29    30 ar  
    61    29    77 1   
    62    31    32 ar  
    63    31    36 ar  
    64    32    33 ar  
    65    32    78 1   
    66    33    34 ar  
    67    33    79 1   
    68    34    35 ar  
    69    34    80 1   
    70    35    36 ar  
    71    35    37 1   
    72    36    81 1   
    73    37    38 2   
    74    37    39 1   
    75    39    40 1   
    76    39    43 1   
    77    40    41 1   
    78    40    82 1   
    79    40    83 1   
    80    41    42 1   
    81    41    84 1   
    82    41    85 1   
    83    42    43 1   
    84    42    86 1   
    85    42    87 1   
    86    43    44 1   
    87    43    88 1   
    88    44    45 2   
    89    44    48 1   
    90    45    46 1   
    91    46    47 2   
    92    46    49 1   
    93    47    48 1   
    94    47    89 1   
    95    49    90 1   
    96    49    91 1   
    97    49    92 1   
@<TRIPOS>SUBSTRUCTURE
     1 8FP         1 TEMP              0 ****  ****    0 ROOT
