@<TRIPOS>MOLECULE
8FP
   93    97     1     0     0
SMALL
abcg2


@<TRIPOS>ATOM
      1 C2          -2.6700     2.7500    -1.1110 ca         1 8FP       0.197100
      2 O39         -1.4420     3.2600    -1.2300 os         1 8FP      -0.322100
      3 C40         -0.9930     4.2020    -0.2720 c3         1 8FP       0.145900
      4 C3          -3.0280     1.7770    -2.0490 ca         1 8FP      -0.197000
      5 C4          -4.2610     1.1630    -1.9810 ca         1 8FP       0.019500
      6 C5          -5.1500     1.5110    -0.9680 ca         1 8FP      -0.335500
      7 C6          -4.8180     2.5010    -0.0530 ca         1 8FP       0.019500
      8 C7          -3.5870     3.1290    -0.1260 ca         1 8FP      -0.197000
      9 S8          -6.6050     0.5550    -0.7000 sy         1 8FP       1.189600
     10 O9          -7.6460     1.3920    -0.1180 o          1 8FP      -0.546500
     11 O10         -6.8990    -0.1530    -1.9410 o          1 8FP      -0.546500
     12 N11         -6.1210    -0.4880     0.4770 n3         1 8FP      -0.785500
     13 C12         -7.0070    -0.7850     1.5990 c3         1 8FP       0.237800
     14 C13         -8.2550    -1.6020     1.2620 c3         1 8FP      -0.093700
     15 C14         -7.9180    -2.9310     0.5960 c3         1 8FP      -0.087100
     16 C15         -9.0590    -1.8190     2.5390 c3         1 8FP      -0.087100
     17 C16         -4.9700    -1.3350     0.1950 c3         1 8FP       0.194800
     18 C17         -3.6800    -0.7990     0.8180 c3         1 8FP       0.133300
     19 O18         -3.6700    -0.9060     2.2220 oh         1 8FP      -0.651000
     20 C19         -2.4340    -1.4070     0.1630 c3         1 8FP       0.078700
     21 N20         -1.2700    -0.6760     0.6050 ns         1 8FP      -0.496900
     22 C21         -0.3030    -0.2320    -0.2190 c          1 8FP       0.618700
     23 O22         -0.3360    -0.3330    -1.4340 o          1 8FP      -0.581100
     24 C32         -2.2600    -2.9120     0.4250 c3         1 8FP      -0.051100
     25 C33          0.1930    -3.4710     0.3450 ca         1 8FP      -0.100500
     26 C34          1.3280    -3.8840    -0.3390 ca         1 8FP      -0.105000
     27 C35          1.2350    -4.2910    -1.6630 ca         1 8FP      -0.101000
     28 C36         -0.0020    -4.2850    -2.2950 ca         1 8FP      -0.105000
     29 C37         -1.1320    -3.8640    -1.6100 ca         1 8FP      -0.100500
     30 C38         -1.0490    -3.4470    -0.2840 ca         1 8FP      -0.084300
     31 C51          0.8630     0.4000     0.4730 ca         1 8FP      -0.154600
     32 C52          0.7150     1.1980     1.6050 ca         1 8FP      -0.078000
     33 C53          1.8290     1.7590     2.2130 ca         1 8FP      -0.130000
     34 C54          3.0970     1.4970     1.7170 ca         1 8FP      -0.067000
     35 C55          3.2500     0.7030     0.5840 ca         1 8FP      -0.151600
     36 C56          2.1310     0.1850    -0.0530 ca         1 8FP      -0.016000
     37 C58          4.5970     0.4640    -0.0140 c          1 8FP       0.610700
     38 O59          4.8040     0.6830    -1.1980 o          1 8FP      -0.566100
     39 N60          5.5650     0.0220     0.8160 n          1 8FP      -0.422800
     40 C61          5.3640    -0.6270     2.1150 c5         1 8FP       0.106000
     41 C69          6.4700    -1.6730     2.1410 c5         1 8FP      -0.099400
     42 C70          7.6120    -0.9710     1.4210 c5         1 8FP      -0.084400
     43 C62          6.9040    -0.2110     0.2880 c5         1 8FP       0.069400
     44 C63          7.5880     1.0700    -0.0640 cc         1 8FP       0.442700
     45 N64          8.5500     1.1770    -0.9150 nd         1 8FP      -0.638000
     46 C65          9.0500     2.4560    -0.9600 cd         1 8FP       0.299300
     47 C66          8.4390     3.3270    -0.1150 cc         1 8FP      -0.269000
     48 S67          7.1990     2.5340     0.7680 ss         1 8FP      -0.039400
     49 C68         10.1710     2.7770    -1.8890 c3         1 8FP      -0.118400
     50 H1           0.0280     4.4540    -0.5440 h1         1 8FP       0.045367
     51 H2          -1.5960     5.1130    -0.2820 h1         1 8FP       0.045367
     52 H3          -0.9960     3.7830     0.7380 h1         1 8FP       0.045367
     53 H4          -2.3210     1.4910    -2.8150 ha         1 8FP       0.135000
     54 H5          -4.5110     0.4020    -2.7070 ha         1 8FP       0.135500
     55 H6          -5.5040     2.7830     0.7350 ha         1 8FP       0.135500
     56 H7          -3.3550     3.8950     0.6010 ha         1 8FP       0.135000
     57 H8          -6.3980    -1.3300     2.3230 h1         1 8FP       0.060200
     58 H9          -7.2950     0.1470     2.0870 h1         1 8FP       0.060200
     59 H10         -8.8710    -1.0160     0.5710 hc         1 8FP       0.064700
     60 H11         -7.2880    -3.5460     1.2440 hc         1 8FP       0.035700
     61 H12         -8.8260    -3.4970     0.3840 hc         1 8FP       0.035700
     62 H13         -7.3970    -2.7930    -0.3520 hc         1 8FP       0.035700
     63 H14         -9.3400    -0.8720     3.0040 hc         1 8FP       0.035700
     64 H15         -9.9770    -2.3710     2.3330 hc         1 8FP       0.035700
     65 H16         -8.4850    -2.3920     3.2710 hc         1 8FP       0.035700
     66 H17         -5.1880    -2.3430     0.5550 h1         1 8FP       0.058700
     67 H18         -4.8370    -1.4490    -0.8840 h1         1 8FP       0.058700
     68 H19         -3.6260     0.2710     0.6150 h1         1 8FP       0.096700
     69 H20         -3.7760    -1.8290     2.4770 ho         1 8FP       0.437000
     70 H21         -2.5250    -1.2460    -0.9130 h1         1 8FP       0.092700
     71 H22         -1.1040    -0.6530     1.5990 hn         1 8FP       0.318500
     72 H23         -2.1660    -3.0920     1.5000 hc         1 8FP       0.048700
     73 H24         -3.1560    -3.4420     0.0900 hc         1 8FP       0.048700
     74 H26          2.2870    -3.8900     0.1650 ha         1 8FP       0.112000
     75 H27          2.1190    -4.6140    -2.1970 ha         1 8FP       0.115000
     76 H28         -0.0870    -4.6080    -3.3250 ha         1 8FP       0.112000
     77 H29         -2.0920    -3.8590    -2.1140 ha         1 8FP       0.106500
     78 H30         -0.2680     1.4060     2.0080 ha         1 8FP       0.118000
     79 H31          1.7080     2.3980     3.0760 ha         1 8FP       0.119000
     80 H32          3.9610     1.9310     2.2050 ha         1 8FP       0.122000
     81 H33          2.2450    -0.4220    -0.9420 ha         1 8FP       0.150000
     82 H34          5.4870     0.0890     2.9310 h1         1 8FP       0.052200
     83 H35          4.3690    -1.0600     2.1900 h1         1 8FP       0.052200
     84 H36          6.7280    -1.9720     3.1560 hc         1 8FP       0.057700
     85 H37          6.1570    -2.5630     1.5920 hc         1 8FP       0.057700
     86 H38          8.1090    -0.2700     2.0950 hc         1 8FP       0.063700
     87 H39          8.3690    -1.6470     1.0270 hc         1 8FP       0.063700
     88 H40          6.8610    -0.8310    -0.6130 h1         1 8FP       0.094700
     89 H41          8.6460     4.3770     0.0210 h4         1 8FP       0.158000
     90 H42          9.9000     2.5500    -2.9210 hc         1 8FP       0.049367
     91 H43         10.4410     3.8290    -1.8310 hc         1 8FP       0.049367
     92 H44         11.0560     2.1860    -1.6480 hc         1 8FP       0.049367
     93 H25          0.2760    -3.1660     1.3810 ha         1 8FP       0.106500
@<TRIPOS>BOND
     1     1     2 1   
     2     1     4 ar  
     3     1     8 ar  
     4     2     3 1   
     5     3    50 1   
     6     3    51 1   
     7     3    52 1   
     8     4     5 ar  
     9     4    53 1   
    10     5     6 ar  
    11     5    54 1   
    12     6     7 ar  
    13     6     9 1   
    14     7     8 ar  
    15     7    55 1   
    16     8    56 1   
    17     9    10 2   
    18     9    11 2   
    19     9    12 1   
    20    12    13 1   
    21    12    17 1   
    22    13    14 1   
    23    13    57 1   
    24    13    58 1   
    25    14    15 1   
    26    14    16 1   
    27    14    59 1   
    28    15    60 1   
    29    15    61 1   
    30    15    62 1   
    31    16    63 1   
    32    16    64 1   
    33    16    65 1   
    34    17    18 1   
    35    17    66 1   
    36    17    67 1   
    37    18    19 1   
    38    18    20 1   
    39    18    68 1   
    40    19    69 1   
    41    20    21 1   
    42    20    24 1   
    43    20    70 1   
    44    21    22 1   
    45    21    71 1   
    46    22    23 2   
    47    22    31 1   
    48    24    30 1   
    49    24    72 1   
    50    24    73 1   
    51    25    26 ar  
    52    25    30 ar  
    53    25    93 1   
    54    26    27 ar  
    55    26    74 1   
    56    27    28 ar  
    57    27    75 1   
    58    28    29 ar  
    59    28    76 1   
    60    29    30 ar  
    61    29    77 1   
    62    31    32 ar  
    63    31    36 ar  
    64    32    33 ar  
    65    32    78 1   
    66    33    34 ar  
    67    33    79 1   
    68    34    35 ar  
    69    34    80 1   
    70    35    36 ar  
    71    35    37 1   
    72    36    81 1   
    73    37    38 2   
    74    37    39 1   
    75    39    40 1   
    76    39    43 1   
    77    40    41 1   
    78    40    82 1   
    79    40    83 1   
    80    41    42 1   
    81    41    84 1   
    82    41    85 1   
    83    42    43 1   
    84    42    86 1   
    85    42    87 1   
    86    43    44 1   
    87    43    88 1   
    88    44    45 2   
    89    44    48 1   
    90    45    46 1   
    91    46    47 2   
    92    46    49 1   
    93    47    48 1   
    94    47    89 1   
    95    49    90 1   
    96    49    91 1   
    97    49    92 1   
@<TRIPOS>SUBSTRUCTURE
     1 8FP         1 TEMP              0 ****  ****    0 ROOT
