@<TRIPOS>MOLECULE
8FQ
   61    64     1     0     0
SMALL
bcc


@<TRIPOS>ATOM
      1 C27         -2.5720    -3.9230     0.5910 ca         1 8FQ      -0.113000
      2 C33         -5.0060     3.9520     0.5140 ca         1 8FQ      -0.068000
      3 C28         -2.0290    -2.6580     0.3790 ca         1 8FQ      -0.104000
      4 C26         -1.7660    -5.0540     0.6480 ca         1 8FQ      -0.108000
      5 C32         -3.7160     4.1630     0.9590 ca         1 8FQ      -0.173000
      6 C34         -5.4220     2.7360    -0.0560 ca         1 8FQ      -0.253000
      7 C20          0.1390    -3.6300     0.2730 ca         1 8FQ      -0.134600
      8 C19         -0.6580    -2.4980     0.2130 ca         1 8FQ      -0.087600
      9 C25         -0.4020    -4.8880     0.4880 ca         1 8FQ      -0.095300
     10 C4          -3.2200     1.8690     0.2420 ca         1 8FQ       0.038400
     11 C31         -2.8390     3.0900     0.8030 ca         1 8FQ      -0.046200
     12 C3          -4.5380     1.6760    -0.1980 ca         1 8FQ       0.204100
     13 C6          -1.1750     1.6560     0.7710 cc         1 8FQ       0.367800
     14 C21          1.6120    -3.7540     0.1640 c          1 8FQ       0.723100
     15 C17         -0.1150    -1.1350    -0.1040 c          1 8FQ       0.707700
     16 C13          6.0460     1.5580    -1.1780 c2         1 8FQ       0.583200
     17 C24          0.7030    -5.9000     0.5080 c5         1 8FQ       0.148300
     18 C14          7.3500     1.0730    -0.5890 c3         1 8FQ       0.132600
     19 C1          -6.1600     0.2290    -1.1260 c3         1 8FQ       0.120700
     20 C9           1.2390     1.6380     0.0150 c3         1 8FQ      -0.076400
     21 C11          3.6410     1.7030    -0.6910 c3         1 8FQ       0.217800
     22 C7           0.1980     1.0720     0.9870 c3         1 8FQ       0.119400
     23 N5          -2.1640     0.9980     0.2380 nd         1 8FQ      -0.545100
     24 N15          6.0490     2.1720    -2.2950 n2         1 8FQ      -0.811100
     25 N29         -1.5140     2.9300     1.1280 na         1 8FQ      -0.145300
     26 N23          1.8690    -5.0730     0.3000 ns         1 8FQ      -0.586900
     27 N16          0.1000    -0.3710     0.9840 ns         1 8FQ      -0.547900
     28 N12          4.9760     1.2240    -0.4110 nu         1 8FQ      -0.897200
     29 O22          2.4220    -2.8590    -0.0060 o          1 8FQ      -0.613500
     30 O18          0.0650    -0.7970    -1.2580 o          1 8FQ      -0.552100
     31 O2          -4.8300     0.4710    -0.7130 os         1 8FQ      -0.291900
     32 H1          -3.6420    -4.0240     0.7130 ha         1 8FQ       0.137000
     33 H2          -5.7350     4.7470     0.6070 ha         1 8FQ       0.129000
     34 H3          -2.6780    -1.7910     0.3350 ha         1 8FQ       0.168000
     35 H4          -2.1990    -6.0320     0.8160 ha         1 8FQ       0.137000
     36 H5          -3.4140     5.1020     1.4020 ha         1 8FQ       0.138000
     37 H6          -6.4520     2.6480    -0.3750 ha         1 8FQ       0.136000
     38 H7           0.7510    -6.4350     1.4590 h1         1 8FQ       0.059200
     39 H8           7.4900     1.4930     0.4100 h1         1 8FQ       0.047700
     40 H9           7.3360    -0.0160    -0.5000 h1         1 8FQ       0.047700
     41 H11         -0.9840     3.8550     2.9350 h1         1 8FQ       0.052033
     42 H12          0.3260     3.7050     1.7570 h1         1 8FQ       0.052033
     43 H13         -0.9390     4.8940     1.5010 h1         1 8FQ       0.052033
     44 H14         -6.1920    -0.7990    -1.4790 h1         1 8FQ       0.041700
     45 H15         -6.8680     0.3410    -0.3010 h1         1 8FQ       0.041700
     46 H16         -6.4630     0.8910    -1.9410 h1         1 8FQ       0.041700
     47 H17          2.9300     1.2710     1.2900 hc         1 8FQ       0.059200
     48 H18          2.6370    -0.0100     0.1210 hc         1 8FQ       0.059200
     49 H19          1.2680     2.7220     0.1500 hc         1 8FQ       0.062700
     50 H20          0.9250     1.4640    -1.0130 hc         1 8FQ       0.062700
     51 H21          3.3740     1.4450    -1.7200 h1         1 8FQ       0.038700
     52 H22          3.5920     2.7970    -0.6170 h1         1 8FQ       0.038700
     53 H23          0.5240     1.3330     1.9990 h1         1 8FQ       0.051700
     54 H24          5.1130     2.4420    -2.5790 hn         1 8FQ       0.378400
     55 H25         -0.1630    -0.7770     1.8680 hn         1 8FQ       0.311500
     56 H26          5.1560     0.9290     0.5360 hn         1 8FQ       0.420800
     57 F1           8.4140     1.4440    -1.3790 f          1 8FQ      -0.218300
     58 H27          0.5880    -6.6420    -0.2860 h1         1 8FQ       0.059200
     59 H10          2.8030    -5.4490     0.2770 hn         1 8FQ       0.333500
     60 C30         -0.7370     3.8930     1.8750 c3         1 8FQ       0.034600
     61 C10          2.6310     1.0740     0.2550 c3         1 8FQ      -0.087400
@<TRIPOS>BOND
     1     1     3 ar  
     2     1     4 ar  
     3     1    32 1   
     4     2     5 ar  
     5     2     6 ar  
     6     2    33 1   
     7     3     8 ar  
     8     3    34 1   
     9     4     9 ar  
    10     4    35 1   
    11     5    11 ar  
    12     5    36 1   
    13     6    12 ar  
    14     6    37 1   
    15     7     8 ar  
    16     7     9 ar  
    17     7    14 1   
    18     8    15 1   
    19     9    17 1   
    20    10    11 ar  
    21    10    12 ar  
    22    10    23 1   
    23    11    25 1   
    24    12    31 1   
    25    13    22 1   
    26    13    23 2   
    27    13    25 1   
    28    14    26 1   
    29    14    29 2   
    30    15    27 1   
    31    15    30 2   
    32    16    18 1   
    33    16    24 2   
    34    16    28 1   
    35    17    26 1   
    36    17    38 1   
    37    17    58 1   
    38    18    39 1   
    39    18    40 1   
    40    18    57 1   
    41    19    31 1   
    42    19    44 1   
    43    19    45 1   
    44    19    46 1   
    45    20    22 1   
    46    20    49 1   
    47    20    50 1   
    48    20    61 1   
    49    21    28 1   
    50    21    51 1   
    51    21    52 1   
    52    21    61 1   
    53    22    27 1   
    54    22    53 1   
    55    24    54 1   
    56    25    60 1   
    57    26    59 1   
    58    27    55 1   
    59    28    56 1   
    60    41    60 1   
    61    42    60 1   
    62    43    60 1   
    63    47    61 1   
    64    48    61 1   
@<TRIPOS>SUBSTRUCTURE
     1 8FQ         1 TEMP              0 ****  ****    0 ROOT
