@<TRIPOS>MOLECULE
8FQ
   61    64     1     0     0
SMALL
No Charge or Current Charge


@<TRIPOS>ATOM
      1 C27         -1.2220    -4.3420     2.2250 ca         1 8FQ      -0.095000
      2 C33         -5.1690     4.3150     0.0750 ca         1 8FQ      -0.050000
      3 C28         -1.0570    -3.0070     1.7950 ca         1 8FQ      -0.086000
      4 C26         -0.6250    -5.3990     1.5160 ca         1 8FQ      -0.090000
      5 C32         -3.8620     4.4260     0.5890 ca         1 8FQ      -0.155000
      6 C34         -5.6290     3.0820    -0.4460 ca         1 8FQ      -0.235000
      7 C20          0.3140    -3.7830    -0.0410 ca         1 8FQ      -0.134600
      8 C19         -0.2880    -2.6960     0.6420 ca         1 8FQ      -0.087600
      9 C25          0.1400    -5.0910     0.3840 ca         1 8FQ      -0.095300
     10 C4          -3.4740     2.0830     0.0620 ca         1 8FQ       0.038400
     11 C31         -3.0510     3.2830     0.5640 ca         1 8FQ      -0.046200
     12 C3          -4.7800     1.9440    -0.4580 ca         1 8FQ       0.204100
     13 C6          -1.4230     1.7670     0.7160 cc         1 8FQ       0.367800
     14 C21          1.2380    -3.8160    -1.2190 c          1 8FQ       0.580600
     15 C17         -0.1690    -1.2600     0.1780 c          1 8FQ       0.640700
     16 C13          6.1180     1.4270    -0.6220 c2         1 8FQ       0.583200
     17 C24          0.8900    -6.0390    -0.5210 c5         1 8FQ       0.148300
     18 C14          7.3520     0.7250    -0.0430 c3         1 8FQ       0.151300
     19 C1          -6.5000     0.5120    -1.5020 c3         1 8FQ       0.143900
     20 C9           1.0680     1.6470     0.1120 c3         1 8FQ      -0.076400
     21 C11          3.5820     1.6790    -0.4410 c3         1 8FQ       0.217800
     22 C7          -0.0670     1.1450     1.0490 c3         1 8FQ       0.119400
     23 N5          -2.4660     1.1160     0.1550 nd         1 8FQ      -0.545100
     24 N15          6.1380     2.2730    -1.5710 n2         1 8FQ      -0.811100
     25 N29         -1.7690     3.1000     0.9870 na         1 8FQ      -0.174600
     26 N23          1.5300    -5.1360    -1.4890 ns         1 8FQ      -0.519900
     27 N16         -0.1000    -0.3270     1.1990 ns         1 8FQ      -0.480900
     28 N12          4.8970     1.1520    -0.0390 nu         1 8FQ      -0.952400
     29 O22          1.7210    -2.8770    -1.8280 o          1 8FQ      -0.538000
     30 O18         -0.2080    -0.9410    -1.0010 o          1 8FQ      -0.552100
     31 O2          -5.1850     0.7190    -0.9580 os         1 8FQ      -0.315100
     32 H1          -1.8230    -4.5560     3.1060 ha         1 8FQ       0.119000
     33 H2          -5.8270     5.1820     0.0790 ha         1 8FQ       0.111000
     34 H3          -1.5620    -2.2190     2.3510 ha         1 8FQ       0.150000
     35 H4          -0.7500    -6.4290     1.8420 ha         1 8FQ       0.119000
     36 H5          -3.5020     5.3700     0.9910 ha         1 8FQ       0.120000
     37 H6          -6.6410     3.0310    -0.8340 ha         1 8FQ       0.118000
     38 H7           1.6270    -6.6210     0.0470 h1         1 8FQ       0.059200
     39 H8           8.1860     0.7980    -0.7520 h1         1 8FQ       0.047700
     40 H9           7.6510     1.2220     0.8870 h1         1 8FQ       0.047700
     41 H11         -1.5790     4.6580     2.4030 h1         1 8FQ       0.052033
     42 H12         -0.0750     3.7540     2.0910 h1         1 8FQ       0.052033
     43 H13         -0.6880     4.9090     0.8720 h1         1 8FQ       0.052033
     44 H14         -6.6120    -0.5260    -1.8400 h1         1 8FQ       0.041700
     45 H15         -7.2700     0.7080    -0.7450 h1         1 8FQ       0.041700
     46 H16         -6.6740     1.1710    -2.3620 h1         1 8FQ       0.041700
     47 H17          2.7030     1.3640     1.5120 hc         1 8FQ       0.059200
     48 H18          2.4850     0.0160     0.3920 hc         1 8FQ       0.059200
     49 H19          1.0950     2.7430     0.1500 hc         1 8FQ       0.062700
     50 H20          0.8320     1.3920    -0.9280 hc         1 8FQ       0.062700
     51 H21          3.3670     1.4030    -1.4830 h1         1 8FQ       0.038700
     52 H22          3.5780     2.7760    -0.3680 h1         1 8FQ       0.038700
     53 H23          0.1870     1.5170     2.0500 h1         1 8FQ       0.051700
     54 H24          5.1690     2.5730    -1.7120 hn         1 8FQ       0.378400
     55 H25         -0.0720    -0.7040     2.1380 hn         1 8FQ       0.311500
     56 H26          4.9120     0.4060     0.6560 hn         1 8FQ       0.476000
     57 F1           7.1390    -0.5930     0.2260 f          1 8FQ      -0.237000
     58 H27          0.2010    -6.7410    -1.0090 h1         1 8FQ       0.059200
     59 H10          2.1790    -5.3800    -2.2280 hn         1 8FQ       0.333500
     60 C30         -0.9780     4.1680     1.6270 c3         1 8FQ       0.063900
     61 C10          2.4760     1.1100     0.4690 c3         1 8FQ      -0.087400
@<TRIPOS>BOND
     1     1     3 ar  
     2     1     4 ar  
     3     1    32 1   
     4     2     5 ar  
     5     2     6 ar  
     6     2    33 1   
     7     3     8 ar  
     8     3    34 1   
     9     4     9 ar  
    10     4    35 1   
    11     5    11 ar  
    12     5    36 1   
    13     6    12 ar  
    14     6    37 1   
    15     7     8 ar  
    16     7     9 ar  
    17     7    14 1   
    18     8    15 1   
    19     9    17 1   
    20    10    11 ar  
    21    10    12 ar  
    22    10    23 1   
    23    11    25 1   
    24    12    31 1   
    25    13    22 1   
    26    13    23 2   
    27    13    25 1   
    28    14    26 1   
    29    14    29 2   
    30    15    27 1   
    31    15    30 2   
    32    16    18 1   
    33    16    24 2   
    34    16    28 1   
    35    17    26 1   
    36    17    38 1   
    37    17    58 1   
    38    18    39 1   
    39    18    40 1   
    40    18    57 1   
    41    19    31 1   
    42    19    44 1   
    43    19    45 1   
    44    19    46 1   
    45    20    22 1   
    46    20    49 1   
    47    20    50 1   
    48    20    61 1   
    49    21    28 1   
    50    21    51 1   
    51    21    52 1   
    52    21    61 1   
    53    22    27 1   
    54    22    53 1   
    55    24    54 1   
    56    25    60 1   
    57    26    59 1   
    58    27    55 1   
    59    28    56 1   
    60    41    60 1   
    61    42    60 1   
    62    43    60 1   
    63    47    61 1   
    64    48    61 1   
@<TRIPOS>SUBSTRUCTURE
     1 8FQ         1 TEMP              0 ****  ****    0 ROOT
