@<TRIPOS>MOLECULE
8FR
   45    48     1     0     0
SMALL
abcg2


@<TRIPOS>ATOM
      1 C4          -1.4360     1.8400    -0.0640 ca         1 8FR       0.103000
      2 C5          -1.7900     0.4940     0.1620 ca         1 8FR      -0.211000
      3 C6          -0.7260    -0.4520    -0.0710 ca         1 8FR       0.443900
      4 N1           0.4510    -0.0670    -0.4940 nb         1 8FR      -0.331000
      5 N3          -0.2130     2.2140    -0.4910 nb         1 8FR      -0.288000
      6 C2           0.6610     1.2530    -0.7080 ca         1 8FR       0.434900
      7 CAA         -3.0810     0.1600     0.5990 ca         1 8FR      -0.046000
      8 CAB         -4.0030     1.1530     0.8030 ca         1 8FR       0.080000
      9 CAC         -3.6750     2.5000     0.5890 ca         1 8FR      -0.065000
     10 CAD         -2.4160     2.8330     0.1650 ca         1 8FR      -0.111000
     11 CAM         -0.0080    -2.7930     0.0720 cc         1 8FR       0.476900
     12 CAN          1.3470    -2.7910    -0.1340 cd         1 8FR      -0.226000
     13 CAP          0.5940    -4.8270     0.1340 cd         1 8FR       0.409400
     14 CAT          2.9440     0.6220    -1.3460 c6         1 8FR       0.217300
     15 CAU          3.8480     0.6450    -0.1190 c6         1 8FR      -0.108400
     16 CAV          4.4030     2.0490     0.1060 c6         1 8FR       0.165500
     17 CAW          3.2720     3.0720     0.1310 c6         1 8FR      -0.108400
     18 CAX          2.3730     2.9510    -1.0960 c6         1 8FR       0.217300
     19 NAL         -0.9310    -1.7610     0.1630 nu         1 8FR      -0.867800
     20 NAO          1.7070    -4.1140    -0.0880 na         1 8FR      -0.162500
     21 NAQ         -0.4670    -4.0620     0.2370 nc         1 8FR      -0.713000
     22 NAS          1.8750     1.5910    -1.2140 nh         1 8FR      -0.753300
     23 NAY          5.1420     2.1000     1.3580 n8         1 8FR      -0.994200
     24 CL          -5.6030     0.7500     1.3370 cl         1 8FR      -0.205000
     25 H1          -3.3730    -0.8670     0.7780 ha         1 8FR       0.122000
     26 H2          -4.4150     3.2710     0.7570 ha         1 8FR       0.129000
     27 H3          -2.1510     3.8680    -0.0030 ha         1 8FR       0.134000
     28 H4           2.0610    -2.0040    -0.2820 h4         1 8FR       0.180000
     29 H5           0.6020    -5.9040     0.2120 h5         1 8FR       0.056100
     30 H6           3.7170    -4.1990     0.4830 h1         1 8FR       0.054367
     31 H7           3.0310    -5.7080    -0.1320 h1         1 8FR       0.054367
     32 H8           3.4220    -4.3980    -1.2540 h1         1 8FR       0.054367
     33 H9           3.5220     0.8880    -2.2360 h1         1 8FR       0.064450
     34 H10          2.5300    -0.3650    -1.5270 h1         1 8FR       0.064450
     35 H11          3.2820     0.3230     0.7610 hc         1 8FR       0.056700
     36 H12          4.6680    -0.0670    -0.2540 hc         1 8FR       0.056700
     37 H13          5.0390     2.2820    -0.7650 h1         1 8FR       0.009700
     38 H14          2.6700     2.9240     1.0340 hc         1 8FR       0.056700
     39 H15          3.6830     4.0850     0.1820 hc         1 8FR       0.056700
     40 H16          1.5370     3.6430    -1.0400 h1         1 8FR       0.064450
     41 H17          2.9330     3.1900    -2.0050 h1         1 8FR       0.064450
     42 H18         -1.8450    -2.0640     0.4570 hn         1 8FR       0.521000
     43 H19          5.9040     1.4330     1.3280 hn         1 8FR       0.393000
     44 H20          5.5840     3.0080     1.4480 hn         1 8FR       0.393000
     45 CAR          3.0460    -4.6290    -0.2590 c3         1 8FR       0.059900
@<TRIPOS>BOND
     1     1     2 ar  
     2     1     5 ar  
     3     1    10 ar  
     4     2     3 ar  
     5     2     7 ar  
     6     3     4 ar  
     7     3    19 1   
     8     4     6 ar  
     9     5     6 ar  
    10     6    22 1   
    11     7     8 ar  
    12     7    25 1   
    13     8     9 ar  
    14     8    24 1   
    15     9    10 ar  
    16     9    26 1   
    17    10    27 1   
    18    11    12 2   
    19    11    19 1   
    20    11    21 1   
    21    12    20 1   
    22    12    28 1   
    23    13    20 1   
    24    13    21 2   
    25    13    29 1   
    26    14    15 1   
    27    14    22 1   
    28    14    33 1   
    29    14    34 1   
    30    15    16 1   
    31    15    35 1   
    32    15    36 1   
    33    16    17 1   
    34    16    23 1   
    35    16    37 1   
    36    17    18 1   
    37    17    38 1   
    38    17    39 1   
    39    18    22 1   
    40    18    40 1   
    41    18    41 1   
    42    19    42 1   
    43    20    45 1   
    44    23    43 1   
    45    23    44 1   
    46    30    45 1   
    47    31    45 1   
    48    32    45 1   
@<TRIPOS>SUBSTRUCTURE
     1 8FR         1 TEMP              0 ****  ****    0 ROOT
