@<TRIPOS>MOLECULE
8FR
   45    48     1     0     0
SMALL
No Charge or Current Charge


@<TRIPOS>ATOM
      1 C4          -1.5840     1.7620     0.0630 ca         1 8FR       0.103000
      2 C5          -1.9090     0.3860     0.1140 ca         1 8FR      -0.211000
      3 C6          -0.8370    -0.5300     0.0500 ca         1 8FR       0.443900
      4 N1           0.4330    -0.1190    -0.0560 nb         1 8FR      -0.331000
      5 N3          -0.3020     2.1560    -0.0430 nb         1 8FR      -0.288000
      6 C2           0.6530     1.2050    -0.1010 ca         1 8FR       0.434900
      7 CAA         -3.2630    -0.0140     0.2320 ca         1 8FR      -0.046000
      8 CAB         -4.2790     0.9540     0.2920 ca         1 8FR       0.080000
      9 CAC         -3.9580     2.3180     0.2380 ca         1 8FR      -0.065000
     10 CAD         -2.6160     2.7170     0.1250 ca         1 8FR      -0.111000
     11 CAM         -0.2150    -2.9640    -0.0360 cc         1 8FR       0.476900
     12 CAN          1.1100    -3.1090     0.2390 cd         1 8FR      -0.226000
     13 CAP          0.1440    -5.0170    -0.4020 cd         1 8FR       0.409400
     14 CAT          3.0670     0.7260    -0.7580 c6         1 8FR       0.217300
     15 CAU          4.4510     1.0170    -0.1330 c6         1 8FR      -0.108400
     16 CAV          4.8310     2.5010    -0.3040 c6         1 8FR       0.165500
     17 CAW          3.7390     3.3920     0.3190 c6         1 8FR      -0.108400
     18 CAX          2.3540     3.0910    -0.3020 c6         1 8FR       0.217300
     19 NAL         -1.0380    -1.9050     0.0770 nu         1 8FR      -0.867800
     20 NAO          1.3540    -4.4470    -0.0140 na         1 8FR      -0.162500
     21 NAQ         -0.8220    -4.1040    -0.4010 nc         1 8FR      -0.713000
     22 NAS          2.0060     1.6340    -0.2080 nh         1 8FR      -0.753300
     23 NAY          6.1410     2.7770     0.3080 n8         1 8FR      -0.994200
     24 Cl          -5.9590     0.4540     0.4380 cl         1 8FR      -0.205000
     25 H1          -3.5440    -1.0610     0.2820 ha         1 8FR       0.122000
     26 H2          -4.7470     3.0650     0.2860 ha         1 8FR       0.129000
     27 H3          -2.3730     3.7760     0.0860 ha         1 8FR       0.134000
     28 H4           1.8510    -2.4010     0.5850 h4         1 8FR       0.180000
     29 H5           0.0510    -6.0680    -0.6510 h5         1 8FR       0.056100
     30 H6           3.2600    -4.6420     0.8700 h1         1 8FR       0.054367
     31 H7           2.4760    -6.1830     0.4140 h1         1 8FR       0.054367
     32 H8           3.1660    -5.1220    -0.8510 h1         1 8FR       0.054367
     33 H9           3.1310     0.8490    -1.8500 h1         1 8FR       0.064450
     34 H10          2.8400    -0.3330    -0.5710 h1         1 8FR       0.064450
     35 H11          4.4310     0.7520     0.9330 hc         1 8FR       0.056700
     36 H12          5.2060     0.3740    -0.6050 hc         1 8FR       0.056700
     37 H13          4.9180     2.7310    -1.3760 h1         1 8FR       0.009700
     38 H14          3.6920     3.2270     1.4040 hc         1 8FR       0.056700
     39 H15          3.9810     4.4520     0.1710 hc         1 8FR       0.056700
     40 H16          1.6200     3.7180     0.2260 h1         1 8FR       0.064450
     41 H17          2.3520     3.4090    -1.3550 h1         1 8FR       0.064450
     42 H18         -1.9990    -2.1950    -0.0520 hn         1 8FR       0.521000
     43 H19          6.8570     2.2320    -0.1860 hn         1 8FR       0.393000
     44 H20          6.4000     3.7490     0.1040 hn         1 8FR       0.393000
     45 CAR          2.6430    -5.1410     0.1130 c3         1 8FR       0.059900
@<TRIPOS>BOND
     1     1     2 ar  
     2     1     5 ar  
     3     1    10 ar  
     4     2     3 ar  
     5     2     7 ar  
     6     3     4 ar  
     7     3    19 1   
     8     4     6 ar  
     9     5     6 ar  
    10     6    22 1   
    11     7     8 ar  
    12     7    25 1   
    13     8     9 ar  
    14     8    24 1   
    15     9    10 ar  
    16     9    26 1   
    17    10    27 1   
    18    11    12 2   
    19    11    19 1   
    20    11    21 1   
    21    12    20 1   
    22    12    28 1   
    23    13    20 1   
    24    13    21 2   
    25    13    29 1   
    26    14    15 1   
    27    14    22 1   
    28    14    33 1   
    29    14    34 1   
    30    15    16 1   
    31    15    35 1   
    32    15    36 1   
    33    16    17 1   
    34    16    23 1   
    35    16    37 1   
    36    17    18 1   
    37    17    38 1   
    38    17    39 1   
    39    18    22 1   
    40    18    40 1   
    41    18    41 1   
    42    19    42 1   
    43    20    45 1   
    44    23    43 1   
    45    23    44 1   
    46    30    45 1   
    47    31    45 1   
    48    32    45 1   
@<TRIPOS>SUBSTRUCTURE
     1 8FR         1 TEMP              0 ****  ****    0 ROOT
