@<TRIPOS>MOLECULE
8FS
   14    14     1     0     0
SMALL
bcc


@<TRIPOS>ATOM
      1 FAE          1.1430     1.8870     0.0200 f          1 8FS      -0.125900
      2 CAF          0.3450     0.8210     0.0130 ca         1 8FS       0.185900
      3 CAB         -1.0200     1.0150     0.0150 ca         1 8FS      -0.224000
      4 CAC         -1.8250    -0.1080     0.0090 ca         1 8FS       0.172900
      5 FAA         -3.1480     0.0570     0.0110 f          1 8FS      -0.132900
      6 CAD         -1.3060    -1.3900     0.0000 ca         1 8FS      -0.192000
      7 CAH          0.0680    -1.5460    -0.0000 ca         1 8FS      -0.057000
      8 CAG          0.9260    -0.4440     0.0060 ca         1 8FS      -0.029000
      9 CAJ          2.3390    -0.5930     0.0110 cg         1 8FS      -0.131000
     10 CAI          3.5330    -0.7300     0.0190 c1         1 8FS      -0.112500
     11 H1          -1.4400     2.0110     0.0310 ha         1 8FS       0.170000
     12 H2          -1.9650    -2.2460    -0.0040 ha         1 8FS       0.157000
     13 H3           0.4960    -2.5390    -0.0040 ha         1 8FS       0.147000
     14 H4           4.5900    -0.8480     0.0260 ha         1 8FS       0.172500
@<TRIPOS>BOND
     1     1     2 1   
     2     2     3 ar  
     3     2     8 ar  
     4     3     4 ar  
     5     3    11 1   
     6     4     5 1   
     7     4     6 ar  
     8     6     7 ar  
     9     6    12 1   
    10     7     8 ar  
    11     7    13 1   
    12     8     9 1   
    13     9    10 3   
    14    10    14 1   
@<TRIPOS>SUBSTRUCTURE
     1 8FS         1 TEMP              0 ****  ****    0 ROOT
