@<TRIPOS>MOLECULE
8FS
   14    14     1     0     0
SMALL
No Charge or Current Charge


@<TRIPOS>ATOM
      1 FAE          1.1400     1.9710     0.0270 f          1 8FS      -0.161000
      2 CAF          0.3570     0.8670     0.0190 ca         1 8FS       0.221000
      3 CAB         -1.0380     1.0250     0.0170 ca         1 8FS      -0.206000
      4 CAC         -1.8650    -0.1060     0.0080 ca         1 8FS       0.208000
      5 FAA         -3.2060     0.0450     0.0060 f          1 8FS      -0.168000
      6 CAD         -1.3070    -1.3940     0.0010 ca         1 8FS      -0.174000
      7 CAH          0.0910    -1.5550     0.0030 ca         1 8FS      -0.039000
      8 CAG          0.9320    -0.4250     0.0120 ca         1 8FS      -0.029000
      9 CAJ          2.3580    -0.6050     0.0140 cg         1 8FS      -0.131000
     10 CAI          3.5620    -0.7680     0.0150 c1         1 8FS      -0.200000
     11 H1          -1.4740     2.0190     0.0220 ha         1 8FS       0.152000
     12 H2          -1.9580    -2.2640    -0.0060 ha         1 8FS       0.139000
     13 H3           0.5180    -2.5560    -0.0020 ha         1 8FS       0.129000
     14 H4           4.6250    -0.9050     0.0170 ha         1 8FS       0.260000
@<TRIPOS>BOND
     1     1     2 1   
     2     2     3 ar  
     3     2     8 ar  
     4     3     4 ar  
     5     3    11 1   
     6     4     5 1   
     7     4     6 ar  
     8     6     7 ar  
     9     6    12 1   
    10     7     8 ar  
    11     7    13 1   
    12     8     9 1   
    13     9    10 3   
    14    10    14 1   
@<TRIPOS>SUBSTRUCTURE
     1 8FS         1 TEMP              0 ****  ****    0 ROOT
