@<TRIPOS>MOLECULE
8FT
   67    70     1     0     0
SMALL
No Charge or Current Charge


@<TRIPOS>ATOM
      1 C7          -1.4970    -5.2840     1.6710 ca         1 8FT      -0.094000
      2 C29         -2.2430     5.6680     2.6450 ca         1 8FT      -0.053000
      3 C8          -0.6990    -4.1640     1.9730 ca         1 8FT      -0.083000
      4 C6          -2.2730    -5.3060     0.5040 ca         1 8FT      -0.087000
      5 C30         -1.0340     4.9920     2.8980 ca         1 8FT      -0.152000
      6 C28         -3.2140     5.0980     1.7890 ca         1 8FT      -0.237000
      7 C34         -1.4410    -3.0870    -0.0690 ca         1 8FT      -0.136600
      8 C9          -0.6510    -3.0250     1.1240 ca         1 8FT      -0.082600
      9 C5          -2.2320    -4.2010    -0.3540 ca         1 8FT      -0.087300
     10 C24         -1.7620     3.1820     1.4440 ca         1 8FT       0.045400
     11 C31         -0.8360     3.7520     2.2750 ca         1 8FT      -0.043200
     12 C25         -2.9830     3.8390     1.1750 ca         1 8FT       0.202100
     13 C22         -0.0960     1.7900     1.5270 cc         1 8FT       0.390800
     14 C35         -1.6130    -2.1520    -1.2230 c          1 8FT       0.578600
     15 C10          0.2300    -1.8650     1.5830 c          1 8FT       0.624700
     16 C19          6.0610    -1.0720    -1.9760 c2         1 8FT       0.585200
     17 C4          -2.9970    -4.0790    -1.6620 c5         1 8FT       0.144300
     18 C20          6.9320    -2.3320    -1.9180 c3         1 8FT       0.152300
     19 C1          -4.2690    -1.3620    -3.2520 c3         1 8FT      -0.116100
     20 C27         -5.1660     3.8560     0.0200 c3         1 8FT       0.143900
     21 C15          1.8700     0.8650     0.2090 c3         1 8FT      -0.085400
     22 C17          3.9910     0.0850    -1.0230 c3         1 8FT       0.218800
     23 C13          0.8110     0.5880     1.3080 c3         1 8FT       0.109400
     24 N23         -1.3130     1.9470     0.9610 nd         1 8FT      -0.560100
     25 N21          6.2570    -0.0850    -2.7530 n2         1 8FT      -0.811100
     26 N32          0.2180     2.8900     2.3350 na         1 8FT      -0.163600
     27 N3          -2.5230    -2.7440    -2.1080 n          1 8FT      -0.416800
     28 N12          0.0500    -0.6360     1.0010 ns         1 8FT      -0.477900
     29 N18          4.9570    -1.0190    -1.1490 nu         1 8FT      -0.964400
     30 O36         -1.0720    -1.0730    -1.4070 o          1 8FT      -0.532000
     31 O11          1.0730    -2.0120     2.4600 o          1 8FT      -0.596100
     32 O26         -3.9040     3.2420     0.3310 os         1 8FT      -0.315100
     33 H1          -1.5140    -6.1350     2.3480 ha         1 8FT       0.120000
     34 H2          -2.4300     6.6340     3.1110 ha         1 8FT       0.110000
     35 H3          -0.1200    -4.1830     2.8940 ha         1 8FT       0.126000
     36 H4          -2.8920    -6.1690     0.2680 ha         1 8FT       0.122000
     37 H5          -0.2830     5.4240     3.5560 ha         1 8FT       0.120000
     38 H6          -4.1360     5.6460     1.6160 ha         1 8FT       0.116000
     39 H7          -2.7200    -4.8700    -2.3720 h1         1 8FT       0.061700
     40 H8          -4.0830    -4.0950    -1.5010 h1         1 8FT       0.061700
     41 H9           6.4420    -3.1400    -2.4730 h1         1 8FT       0.047700
     42 H10          7.9030    -2.1350    -2.3890 h1         1 8FT       0.047700
     43 H12         -4.5320    -0.8920    -4.2070 hc         1 8FT       0.041700
     44 H13         -5.0670    -2.0630    -2.9810 hc         1 8FT       0.041700
     45 H14         -4.2180    -0.5800    -2.4850 hc         1 8FT       0.041700
     46 H15          1.1830     3.1070     4.2000 h1         1 8FT       0.054033
     47 H16          2.2100     2.4210     2.9060 h1         1 8FT       0.054033
     48 H17          1.8110     4.1600     2.8960 h1         1 8FT       0.054033
     49 H18         -5.7620     4.0050     0.9290 h1         1 8FT       0.040700
     50 H19         -5.0170     4.8270    -0.4690 h1         1 8FT       0.040700
     51 H20         -5.7400     3.2170    -0.6630 h1         1 8FT       0.040700
     52 H21          3.4050    -0.4570     0.9910 hc         1 8FT       0.055700
     53 H22          2.4140    -1.1860    -0.2770 hc         1 8FT       0.055700
     54 H23          2.3940     1.7970     0.4520 hc         1 8FT       0.054200
     55 H24          1.3560     1.0360    -0.7460 hc         1 8FT       0.054200
     56 H25         -2.9950    -2.8590    -4.1510 h1         1 8FT       0.057200
     57 H26         -2.1460    -1.3790    -3.6820 h1         1 8FT       0.057200
     58 H27          3.5010     0.2700    -1.9890 h1         1 8FT       0.037700
     59 H28          4.5090     1.0050    -0.7190 h1         1 8FT       0.037700
     60 H29          1.3470     0.4270     2.2520 h1         1 8FT       0.085700
     61 H30          5.5030     0.5840    -2.5680 hn         1 8FT       0.376400
     62 H31         -0.6440    -0.5810     0.2630 hn         1 8FT       0.343500
     63 H32          4.8840    -1.7880    -0.4830 hn         1 8FT       0.483000
     64 F1           7.1600    -2.7650    -0.6460 f          1 8FT      -0.235000
     65 C2          -2.9210    -2.0920    -3.3690 c3         1 8FT       0.113000
     66 C33          1.4290     3.1580     3.1320 c3         1 8FT       0.063900
     67 C16          2.9180    -0.2610     0.0270 c3         1 8FT      -0.086400
@<TRIPOS>BOND
     1     1     3 ar  
     2     1     4 ar  
     3     1    33 1   
     4     2     5 ar  
     5     2     6 ar  
     6     2    34 1   
     7     3     8 ar  
     8     3    35 1   
     9     4     9 ar  
    10     4    36 1   
    11     5    11 ar  
    12     5    37 1   
    13     6    12 ar  
    14     6    38 1   
    15     7     8 ar  
    16     7     9 ar  
    17     7    14 1   
    18     8    15 1   
    19     9    17 1   
    20    10    11 ar  
    21    10    12 ar  
    22    10    24 1   
    23    11    26 1   
    24    12    32 1   
    25    13    23 1   
    26    13    24 2   
    27    13    26 1   
    28    14    27 1   
    29    14    30 2   
    30    15    28 1   
    31    15    31 2   
    32    16    18 1   
    33    16    25 2   
    34    16    29 1   
    35    17    27 1   
    36    17    39 1   
    37    17    40 1   
    38    18    41 1   
    39    18    42 1   
    40    18    64 1   
    41    19    43 1   
    42    19    44 1   
    43    19    45 1   
    44    19    65 1   
    45    20    32 1   
    46    20    49 1   
    47    20    50 1   
    48    20    51 1   
    49    21    23 1   
    50    21    54 1   
    51    21    55 1   
    52    21    67 1   
    53    22    29 1   
    54    22    58 1   
    55    22    59 1   
    56    22    67 1   
    57    23    28 1   
    58    23    60 1   
    59    25    61 1   
    60    26    66 1   
    61    27    65 1   
    62    28    62 1   
    63    29    63 1   
    64    46    66 1   
    65    47    66 1   
    66    48    66 1   
    67    52    67 1   
    68    53    67 1   
    69    56    65 1   
    70    57    65 1   
@<TRIPOS>SUBSTRUCTURE
     1 8FT         1 TEMP              0 ****  ****    0 ROOT
