@<TRIPOS>MOLECULE
8FT
   67    70     1     0     0
SMALL
abcg2


@<TRIPOS>ATOM
      1 C7          -0.6390    -4.7440    -1.9820 ca         1 8FT      -0.094000
      2 C29         -2.7090     4.9390     1.3800 ca         1 8FT      -0.053000
      3 C8           0.1330    -3.9400    -1.1450 ca         1 8FT      -0.083000
      4 C6          -2.0150    -4.5750    -2.0770 ca         1 8FT      -0.087000
      5 C30         -1.7860     4.2360     2.1270 ca         1 8FT      -0.152000
      6 C28         -3.0260     4.5970     0.0540 ca         1 8FT      -0.237000
      7 C34         -1.8360    -2.7860    -0.4760 ca         1 8FT      -0.136600
      8 C9          -0.4580    -2.9340    -0.3910 ca         1 8FT      -0.082600
      9 C5          -2.6020    -3.5880    -1.3050 ca         1 8FT      -0.087300
     10 C24         -1.4700     2.7910     0.1680 ca         1 8FT       0.045400
     11 C31         -1.1810     3.1550     1.4860 ca         1 8FT      -0.043200
     12 C25         -2.4130     3.5200    -0.5720 ca         1 8FT       0.202100
     13 C22         -0.0190     1.4060     0.8590 cc         1 8FT       0.390800
     14 C35         -2.7370    -1.8750     0.2700 c          1 8FT       0.578600
     15 C10          0.3690    -2.0580     0.5000 c          1 8FT       0.624700
     16 C19          7.0450    -0.4490    -0.5100 c2         1 8FT       0.585200
     17 C4          -4.0380    -3.1890    -1.1750 c5         1 8FT       0.144300
     18 C20          7.9260    -1.6760    -0.4810 c3         1 8FT       0.152300
     19 C1          -5.8640    -2.2560     1.4020 c3         1 8FT      -0.116100
     20 C27         -3.5730     3.8340    -2.6070 c3         1 8FT       0.143900
     21 C15          2.3350     0.7960     0.3690 c3         1 8FT      -0.085400
     22 C17          4.7300     0.2880    -0.1590 c3         1 8FT       0.218800
     23 C13          0.9820     0.2890     0.8800 c3         1 8FT       0.109400
     24 N23         -0.7240     1.7010    -0.1950 nd         1 8FT      -0.560100
     25 N21          7.5390     0.6720    -0.8630 n2         1 8FT      -0.811100
     26 N32         -0.2470     2.2420     1.9090 na         1 8FT      -0.163600
     27 N3          -3.9820    -2.1190    -0.2040 n          1 8FT      -0.416800
     28 N12          0.4590    -0.7900     0.0750 ns         1 8FT      -0.477900
     29 N18          5.7750    -0.7080    -0.1120 nu         1 8FT      -0.964400
     30 O36         -2.4350    -1.0820     1.1450 o          1 8FT      -0.532000
     31 O11          0.9240    -2.5000     1.4930 o          1 8FT      -0.596100
     32 O26         -2.6400     3.1100    -1.8290 os         1 8FT      -0.315100
     33 H1          -0.1520    -5.5130    -2.5670 ha         1 8FT       0.120000
     34 H2          -3.2120     5.7880     1.8230 ha         1 8FT       0.110000
     35 H3           1.2040    -4.0940    -1.0990 ha         1 8FT       0.126000
     36 H4          -2.6060    -5.2030    -2.7300 ha         1 8FT       0.122000
     37 H5          -1.5520     4.5140     3.1460 ha         1 8FT       0.120000
     38 H6          -3.7590     5.1970    -0.4670 ha         1 8FT       0.116000
     39 H7          -4.4540    -2.8420    -2.1260 h1         1 8FT       0.061700
     40 H8          -4.6600    -4.0190    -0.8270 h1         1 8FT       0.061700
     41 H9           7.9460    -2.0980     0.5260 h1         1 8FT       0.047700
     42 H10          7.5320    -2.4360    -1.1610 h1         1 8FT       0.047700
     43 H12         -6.7650    -1.7340     1.7220 hc         1 8FT       0.041700
     44 H13         -6.1610    -3.2500     1.0650 hc         1 8FT       0.041700
     45 H14         -5.2130    -2.3700     2.2690 hc         1 8FT       0.041700
     46 H15         -0.3310     2.5390     3.9640 h1         1 8FT       0.054033
     47 H16          0.7480     1.2520     3.4540 h1         1 8FT       0.054033
     48 H17          1.2300     2.9410     3.2300 h1         1 8FT       0.054033
     49 H18         -4.5750     3.8090    -2.1700 h1         1 8FT       0.040700
     50 H19         -3.2720     4.8770    -2.7370 h1         1 8FT       0.040700
     51 H20         -3.6040     3.3530    -3.5810 h1         1 8FT       0.040700
     52 H21          3.5840    -0.6120     1.4210 hc         1 8FT       0.055700
     53 H22          3.1180    -1.1290    -0.1960 hc         1 8FT       0.055700
     54 H23          2.6380     1.6510     0.9810 hc         1 8FT       0.054200
     55 H24          2.2010     1.1740    -0.6490 hc         1 8FT       0.054200
     56 H25         -5.8540    -1.3220    -0.5430 h1         1 8FT       0.057200
     57 H26         -4.8910    -0.4820     0.6560 h1         1 8FT       0.057200
     58 H27          4.5710     0.6390    -1.1870 h1         1 8FT       0.037700
     59 H28          5.0340     1.1610     0.4270 h1         1 8FT       0.037700
     60 H29          1.1050    -0.0880     1.8970 h1         1 8FT       0.085700
     61 H30          6.8450     1.4130    -0.8460 hn         1 8FT       0.376400
     62 H31         -0.0820    -0.5150    -0.7320 hn         1 8FT       0.343500
     63 H32          5.4900    -1.6700    -0.0210 hn         1 8FT       0.483000
     64 F1           9.2110    -1.3640    -0.8610 f          1 8FT      -0.235000
     65 C2          -5.1730    -1.4720     0.2960 c3         1 8FT       0.113000
     66 C33          0.3910     2.2470     3.2050 c3         1 8FT       0.063900
     67 C16          3.4270    -0.2630     0.3970 c3         1 8FT      -0.086400
@<TRIPOS>BOND
     1     1     3 ar  
     2     1     4 ar  
     3     1    33 1   
     4     2     5 ar  
     5     2     6 ar  
     6     2    34 1   
     7     3     8 ar  
     8     3    35 1   
     9     4     9 ar  
    10     4    36 1   
    11     5    11 ar  
    12     5    37 1   
    13     6    12 ar  
    14     6    38 1   
    15     7     8 ar  
    16     7     9 ar  
    17     7    14 1   
    18     8    15 1   
    19     9    17 1   
    20    10    11 ar  
    21    10    12 ar  
    22    10    24 1   
    23    11    26 1   
    24    12    32 1   
    25    13    23 1   
    26    13    24 2   
    27    13    26 1   
    28    14    27 1   
    29    14    30 2   
    30    15    28 1   
    31    15    31 2   
    32    16    18 1   
    33    16    25 2   
    34    16    29 1   
    35    17    27 1   
    36    17    39 1   
    37    17    40 1   
    38    18    41 1   
    39    18    42 1   
    40    18    64 1   
    41    19    43 1   
    42    19    44 1   
    43    19    45 1   
    44    19    65 1   
    45    20    32 1   
    46    20    49 1   
    47    20    50 1   
    48    20    51 1   
    49    21    23 1   
    50    21    54 1   
    51    21    55 1   
    52    21    67 1   
    53    22    29 1   
    54    22    58 1   
    55    22    59 1   
    56    22    67 1   
    57    23    28 1   
    58    23    60 1   
    59    25    61 1   
    60    26    66 1   
    61    27    65 1   
    62    28    62 1   
    63    29    63 1   
    64    46    66 1   
    65    47    66 1   
    66    48    66 1   
    67    52    67 1   
    68    53    67 1   
    69    56    65 1   
    70    57    65 1   
@<TRIPOS>SUBSTRUCTURE
     1 8FT         1 TEMP              0 ****  ****    0 ROOT
