@<TRIPOS>MOLECULE
8FU
   47    50     1     0     0
SMALL
bcc


@<TRIPOS>ATOM
      1 C4          -1.1380    -0.4220     0.2680 ca         1 8FU       0.747200
      2 C5          -1.9710     0.7340     0.4870 ca         1 8FU      -0.295600
      3 C6          -1.3200     1.8550     1.0380 ca         1 8FU       0.444600
      4 N1           0.0040     1.8420     1.3490 nb         1 8FU      -0.714000
      5 N3           0.1350    -0.4030     0.5990 nb         1 8FU      -0.777000
      6 C2           0.6290     0.7260     1.1180 ca         1 8FU       0.668500
      7 CAA         -3.3440     0.7950     0.1930 ca         1 8FU      -0.086000
      8 CAB         -4.0340     1.9530     0.4420 ca         1 8FU       0.012400
      9 CAC         -3.3990     3.0810     0.9840 ca         1 8FU      -0.094000
     10 CAD         -2.0620     3.0280     1.2760 ca         1 8FU      -0.169300
     11 CAM         -1.0120    -2.7390    -0.5380 cc         1 8FU       0.557200
     12 CAN          0.3130    -3.1600    -0.3120 cc         1 8FU      -0.288300
     13 CAO          0.3350    -4.4600    -0.7770 cd         1 8FU      -0.079600
     14 CAR          1.4300    -5.4650    -0.7970 c3         1 8FU      -0.032800
     15 CAS          2.0630     0.6230     1.5740 c          1 8FU       0.602600
     16 CAU          2.7430     2.0420    -0.3370 c6         1 8FU       0.107000
     17 CAV          3.5640     1.4230    -1.4640 c6         1 8FU       0.146500
     18 CAX          5.1830     0.6590     0.1470 c6         1 8FU       0.136800
     19 CAY          4.3860     1.2790     1.2810 c6         1 8FU       0.093000
     20 CAZ          3.3810     2.2120    -2.7480 c3         1 8FU      -0.090100
     21 NAL         -1.6550    -1.5340    -0.2780 nu         1 8FU      -0.817600
     22 NAP         -0.9030    -4.7160    -1.2270 na         1 8FU       0.001400
     23 NAQ         -1.7400    -3.6890    -1.0940 nd         1 8FU      -0.579800
     24 NAT          2.9810     1.3390     0.9120 n          1 8FU      -0.456800
     25 NAW          4.9620     1.4210    -1.0680 n7         1 8FU      -0.811200
     26 OBA          2.3000    -0.0920     2.5390 o          1 8FU      -0.581100
     27 CL          -5.7230     2.0390     0.0840 cl         1 8FU      -0.099400
     28 H1          -3.8760    -0.0500    -0.2220 ha         1 8FU       0.144000
     29 H2          -3.9650     3.9830     1.1720 ha         1 8FU       0.153000
     30 H3          -1.5570     3.8870     1.6970 ha         1 8FU       0.160000
     31 H4           1.1260    -2.6090     0.1210 ha         1 8FU       0.194000
     32 H5           1.3390    -6.1640     0.0350 hc         1 8FU       0.053367
     33 H6           1.4260    -6.0450    -1.7190 hc         1 8FU       0.053367
     34 H7           2.3960    -4.9720    -0.7130 hc         1 8FU       0.053367
     35 H8           3.0290     3.0910    -0.2110 h1         1 8FU       0.062200
     36 H9           1.6880     2.0210    -0.5980 h1         1 8FU       0.062200
     37 H10          3.1830     0.3980    -1.6180 h1         1 8FU       0.029700
     38 H11          6.2450     0.6830     0.3990 h1         1 8FU       0.041200
     39 H12          4.8900    -0.3990     0.0500 h1         1 8FU       0.041200
     40 H13          4.5010     0.7030     2.1950 h1         1 8FU       0.070200
     41 H14          4.7390     2.2960     1.4700 h1         1 8FU       0.070200
     42 H15          3.6990     3.2470    -2.6160 hc         1 8FU       0.041367
     43 H16          3.9680     1.7780    -3.5590 hc         1 8FU       0.041367
     44 H17          2.3370     2.2100    -3.0610 hc         1 8FU       0.041367
     45 H18         -2.6270    -1.5300    -0.5480 hn         1 8FU       0.460800
     46 H19         -1.2350    -5.5740    -1.6370 hn         1 8FU       0.322700
     47 H20          5.5260     1.0380    -1.8170 hn         1 8FU       0.358800
@<TRIPOS>BOND
     1     1     2 ar  
     2     1     5 ar  
     3     1    21 1   
     4     2     3 ar  
     5     2     7 ar  
     6     3     4 ar  
     7     3    10 ar  
     8     4     6 ar  
     9     5     6 ar  
    10     6    15 1   
    11     7     8 ar  
    12     7    28 1   
    13     8     9 ar  
    14     8    27 1   
    15     9    10 ar  
    16     9    29 1   
    17    10    30 1   
    18    11    12 1   
    19    11    21 1   
    20    11    23 2   
    21    12    13 2   
    22    12    31 1   
    23    13    14 1   
    24    13    22 1   
    25    14    32 1   
    26    14    33 1   
    27    14    34 1   
    28    15    24 1   
    29    15    26 2   
    30    16    17 1   
    31    16    24 1   
    32    16    35 1   
    33    16    36 1   
    34    17    20 1   
    35    17    25 1   
    36    17    37 1   
    37    18    19 1   
    38    18    25 1   
    39    18    38 1   
    40    18    39 1   
    41    19    24 1   
    42    19    40 1   
    43    19    41 1   
    44    20    42 1   
    45    20    43 1   
    46    20    44 1   
    47    21    45 1   
    48    22    23 1   
    49    22    46 1   
    50    25    47 1   
@<TRIPOS>SUBSTRUCTURE
     1 8FU         1 TEMP              0 ****  ****    0 ROOT
