@<TRIPOS>MOLECULE
8FU
   47    50     1     0     0
SMALL
No Charge or Current Charge


@<TRIPOS>ATOM
      1 C4          -1.2180    -0.6640     0.5080 ca         1 8FU       0.418900
      2 C5          -1.9330     0.5570     0.5020 ca         1 8FU      -0.165000
      3 C6          -1.2080     1.7370     0.8030 ca         1 8FU       0.051000
      4 N1           0.1100     1.6790     1.0770 nb         1 8FU      -0.188000
      5 N3           0.0950    -0.7010     0.7870 nb         1 8FU      -0.251000
      6 C2           0.7200     0.4700     1.0440 ca         1 8FU       0.142500
      7 CAA         -3.3160     0.6390     0.2080 ca         1 8FU      -0.068000
      8 CAB         -3.9670     1.8840     0.2220 ca         1 8FU       0.104000
      9 CAC         -3.2510     3.0500     0.5250 ca         1 8FU      -0.076000
     10 CAD         -1.8780     2.9750     0.8130 ca         1 8FU      -0.086000
     11 CAM         -1.4280    -3.1270    -0.0890 cc         1 8FU       0.491900
     12 CAN         -0.1410    -3.4610    -0.5180 cc         1 8FU      -0.205000
     13 CAO         -0.1680    -4.7940    -0.7950 cd         1 8FU      -0.130300
     14 CAR          0.9170    -5.7090    -1.2970 c3         1 8FU      -0.032800
     15 CAS          2.2050     0.4030     1.3910 c          1 8FU       0.535600
     16 CAU          2.8420     2.2030    -0.3110 c6         1 8FU       0.107000
     17 CAV          3.8920     1.8160    -1.4000 c6         1 8FU       0.146500
     18 CAX          5.4900     1.1620     0.3570 c6         1 8FU       0.136800
     19 CAY          4.4650     1.5640     1.4520 c6         1 8FU       0.093000
     20 CAZ          3.7420     2.6800    -2.6750 c3         1 8FU      -0.090100
     21 NAL         -1.8460    -1.8840     0.2650 nu         1 8FU      -0.872800
     22 NAP         -1.4890    -5.1840    -0.5210 na         1 8FU       0.001800
     23 NAQ         -2.2810    -4.1150    -0.0820 nd         1 8FU      -0.579800
     24 NAT          3.0570     1.4560     0.9670 n          1 8FU      -0.389800
     25 NAW          5.2840     1.9340    -0.8970 n7         1 8FU      -0.866400
     26 OBA          2.6540    -0.5220     2.0620 o          1 8FU      -0.581100
     27 Cl          -5.6840     1.9790    -0.1450 cl         1 8FU      -0.191000
     28 H1          -3.8980    -0.2440    -0.0390 ha         1 8FU       0.126000
     29 H2          -3.7580     4.0120     0.5350 ha         1 8FU       0.135000
     30 H3          -1.3280     3.8850     1.0450 ha         1 8FU       0.142000
     31 H4           0.7000    -2.7870    -0.6190 ha         1 8FU       0.176000
     32 H5           1.0890    -6.5370    -0.6000 hc         1 8FU       0.053367
     33 H6           0.6530    -6.1370    -2.2710 hc         1 8FU       0.053367
     34 H7           1.8660    -5.1710    -1.4150 hc         1 8FU       0.053367
     35 H8           2.9110     3.2800    -0.1040 h1         1 8FU       0.062200
     36 H9           1.8440     2.0130    -0.7240 h1         1 8FU       0.062200
     37 H10          3.7150     0.7670    -1.6840 h1         1 8FU       0.029700
     38 H11          6.5120     1.3280     0.7290 h1         1 8FU       0.041200
     39 H12          5.3850     0.0870     0.1450 h1         1 8FU       0.041200
     40 H13          4.6220     0.9440     2.3460 h1         1 8FU       0.070200
     41 H14          4.6540     2.6050     1.7510 h1         1 8FU       0.070200
     42 H15          3.9150     3.7420    -2.4620 hc         1 8FU       0.041367
     43 H16          4.4530     2.3710    -3.4510 hc         1 8FU       0.041367
     44 H17          2.7340     2.5840    -3.0970 hc         1 8FU       0.041367
     45 H18         -2.8530    -1.8680     0.3760 hn         1 8FU       0.516000
     46 H19         -1.8710    -6.1250    -0.6240 hn         1 8FU       0.373000
     47 H20          5.9320     1.5870    -1.6170 hn         1 8FU       0.414000
@<TRIPOS>BOND
     1     1     2 ar  
     2     1     5 ar  
     3     1    21 1   
     4     2     3 ar  
     5     2     7 ar  
     6     3     4 ar  
     7     3    10 ar  
     8     4     6 ar  
     9     5     6 ar  
    10     6    15 1   
    11     7     8 ar  
    12     7    28 1   
    13     8     9 ar  
    14     8    27 1   
    15     9    10 ar  
    16     9    29 1   
    17    10    30 1   
    18    11    12 1   
    19    11    21 1   
    20    11    23 2   
    21    12    13 2   
    22    12    31 1   
    23    13    14 1   
    24    13    22 1   
    25    14    32 1   
    26    14    33 1   
    27    14    34 1   
    28    15    24 1   
    29    15    26 2   
    30    16    17 1   
    31    16    24 1   
    32    16    35 1   
    33    16    36 1   
    34    17    20 1   
    35    17    25 1   
    36    17    37 1   
    37    18    19 1   
    38    18    25 1   
    39    18    38 1   
    40    18    39 1   
    41    19    24 1   
    42    19    40 1   
    43    19    41 1   
    44    20    42 1   
    45    20    43 1   
    46    20    44 1   
    47    21    45 1   
    48    22    23 1   
    49    22    46 1   
    50    25    47 1   
@<TRIPOS>SUBSTRUCTURE
     1 8FU         1 TEMP              0 ****  ****    0 ROOT
