@<TRIPOS>MOLECULE
8FV
   54    59     1     0     0
SMALL
No Charge or Current Charge


@<TRIPOS>ATOM
      1 C1           5.2960     1.3530     2.2980 c3         1 8FV      -0.138400
      2 C2           5.3820     0.3880     1.1480 cc         1 8FV       0.201300
      3 C3           4.4270    -0.1780     0.3470 cd         1 8FV      -0.171000
      4 C25          5.1670    -0.9840    -0.5600 cd         1 8FV       0.306300
      5 C26          4.6730    -1.6950    -1.7930 c3         1 8FV      -0.132400
      6 N4          -1.8060     3.8280     0.5390 nb         1 8FV      -0.212000
      7 C5           1.9790    -0.8020     0.0460 ca         1 8FV       0.133100
      8 C6           1.4120    -3.1930    -0.2700 c3         1 8FV       0.142900
      9 C7           0.6110    -0.4280    -0.0280 ca         1 8FV      -0.153000
     10 C8           0.2650     0.9230     0.1370 cp         1 8FV      -0.021000
     11 C11         -1.0270     1.6070     0.1290 cp         1 8FV      -0.186000
     12 C10         -0.7990     2.9510     0.4270 ca         1 8FV       0.186500
     13 C9           1.2530     1.8530     0.4040 ca         1 8FV      -0.045200
     14 C12         -2.3900     1.1170    -0.0850 cq         1 8FV       0.226500
     15 C15         -4.3540    -0.8580     0.9960 ca         1 8FV      -0.079000
     16 C16         -5.2930    -1.7760     1.4920 ca         1 8FV      -0.108000
     17 C20         -2.4570    -1.7110    -2.6190 ca         1 8FV       0.344900
     18 C19         -3.9850    -2.2850    -0.9660 ca         1 8FV       0.262000
     19 C18         -4.9330    -3.1890    -0.4490 ca         1 8FV      -0.085000
     20 C17         -5.5860    -2.9400     0.7680 ca         1 8FV      -0.100000
     21 C21         -2.1200    -0.5170    -1.9680 ca         1 8FV      -0.155000
     22 N5           6.4610    -1.0070    -0.2960 nc         1 8FV      -0.370300
     23 O2           6.6110    -0.1350     0.8320 os         1 8FV      -0.074700
     24 C4           2.9900     0.1830     0.2860 ca         1 8FV      -0.003000
     25 C24          2.6080     1.5330     0.4900 ca         1 8FV      -0.089000
     26 N1           0.5890     3.0740     0.5650 na         1 8FV      -0.324300
     27 C22         -3.0480     3.3170     0.3480 ca         1 8FV       0.172300
     28 C23         -4.2040     4.2940     0.4690 c3         1 8FV      -0.134400
     29 N3          -3.3750     2.0320     0.0450 nb         1 8FV      -0.207000
     30 C13         -2.7470    -0.1800    -0.7530 cq         1 8FV      -0.091500
     31 N2          -3.3710    -2.5780    -2.1360 nb         1 8FV      -0.654000
     32 C14         -3.7010    -1.0950    -0.2370 ca         1 8FV      -0.052000
     33 H3           6.0820     1.1510     3.0350 hc         1 8FV       0.063033
     34 H1           5.4180     2.3850     1.9510 hc         1 8FV       0.063033
     35 H2           4.3300     1.2700     2.8100 hc         1 8FV       0.063033
     36 H20          3.7640    -1.2260    -2.1860 hc         1 8FV       0.057367
     37 H19          5.4220    -1.6700    -2.5930 hc         1 8FV       0.057367
     38 H21          4.4530    -2.7460    -1.5770 hc         1 8FV       0.057367
     39 H6           0.6660    -3.2420     0.5330 h1         1 8FV       0.043700
     40 H5           0.8930    -3.0460    -1.2260 h1         1 8FV       0.043700
     41 H4           1.9310    -4.1580    -0.3100 h1         1 8FV       0.043700
     42 H7          -0.1740    -1.1600    -0.1830 ha         1 8FV       0.133000
     43 H9          -4.1370     0.0270     1.5870 ha         1 8FV       0.126000
     44 H10         -5.7920    -1.5850     2.4400 ha         1 8FV       0.116000
     45 H13         -1.9820    -1.9820    -3.5610 h4         1 8FV       0.020100
     46 H12         -5.1590    -4.0980    -1.0010 ha         1 8FV       0.131000
     47 H11         -6.3140    -3.6520     1.1520 ha         1 8FV       0.117000
     48 H14         -1.3810     0.1390    -2.4200 ha         1 8FV       0.131000
     49 H18          3.3400     2.3130     0.6720 ha         1 8FV       0.126000
     50 H8           1.0510     3.9530     0.7680 hn         1 8FV       0.369000
     51 H17         -4.4100     4.7730    -0.4950 hc         1 8FV       0.061367
     52 H15         -5.1220     3.7920     0.7970 hc         1 8FV       0.061367
     53 H16         -3.9860     5.0850     1.1970 hc         1 8FV       0.061367
     54 O1           2.3530    -2.1320    -0.0310 os         1 8FV      -0.333100
@<TRIPOS>BOND
     1     1     2 1   
     2     1    33 1   
     3     1    34 1   
     4     1    35 1   
     5     2     3 2   
     6     2    23 1   
     7     3     4 1   
     8     3    24 1   
     9     4     5 1   
    10     4    22 2   
    11     5    36 1   
    12     5    37 1   
    13     5    38 1   
    14     6    12 ar  
    15     6    27 ar  
    16     7     9 ar  
    17     7    24 ar  
    18     7    54 1   
    19     8    39 1   
    20     8    40 1   
    21     8    41 1   
    22     8    54 1   
    23     9    10 ar  
    24     9    42 1   
    25    10    11 1   
    26    10    13 ar  
    27    11    12 ar  
    28    11    14 1   
    29    12    26 1   
    30    13    25 ar  
    31    13    26 1   
    32    14    29 2   
    33    14    30 1   
    34    15    16 ar  
    35    15    32 ar  
    36    15    43 1   
    37    16    20 ar  
    38    16    44 1   
    39    17    21 ar  
    40    17    31 ar  
    41    17    45 1   
    42    18    19 ar  
    43    18    31 ar  
    44    18    32 ar  
    45    19    20 ar  
    46    19    46 1   
    47    20    47 1   
    48    21    30 2   
    49    21    48 1   
    50    22    23 1   
    51    24    25 ar  
    52    25    49 1   
    53    26    50 1   
    54    27    28 1   
    55    27    29 ar  
    56    28    51 1   
    57    28    52 1   
    58    28    53 1   
    59    30    32 1   
@<TRIPOS>SUBSTRUCTURE
     1 8FV         1 TEMP              0 ****  ****    0 ROOT
