@<TRIPOS>MOLECULE
8FV
   54    59     1     0     0
SMALL
abcg2


@<TRIPOS>ATOM
      1 C1           4.8570     0.4760     2.8070 c3         1 8FV      -0.138400
      2 C2           5.1400     0.0470     1.4190 cc         1 8FV       0.201300
      3 C3           4.3590    -0.0850     0.3170 cd         1 8FV      -0.171000
      4 C25          5.2640    -0.5510    -0.6830 cd         1 8FV       0.306300
      5 C26          4.9790    -0.8430    -2.1110 c3         1 8FV      -0.132400
      6 N4          -1.7940     3.7240     0.2880 nb         1 8FV      -0.212000
      7 C5           2.0080    -0.7880    -0.1390 ca         1 8FV       0.133100
      8 C6           1.6830    -3.0810    -0.6540 c3         1 8FV       0.142900
      9 C7           0.6590    -0.5080    -0.2790 ca         1 8FV      -0.153000
     10 C8           0.2200     0.8020    -0.0840 cp         1 8FV      -0.021000
     11 C11         -1.0650     1.4490    -0.1300 cp         1 8FV      -0.186000
     12 C10         -0.8470     2.8070     0.2000 ca         1 8FV       0.186500
     13 C9           1.1400     1.8050     0.2580 ca         1 8FV      -0.045200
     14 C12         -2.3860     1.1140    -0.3800 cq         1 8FV       0.226500
     15 C15         -4.2570    -0.6070     1.1990 ca         1 8FV      -0.079000
     16 C16         -5.1140    -1.4210     1.8870 ca         1 8FV      -0.108000
     17 C20         -2.6800    -2.0680    -2.3520 ca         1 8FV       0.344900
     18 C19         -4.0250    -2.3190    -0.5250 ca         1 8FV       0.262000
     19 C18         -4.9180    -3.1350     0.2060 ca         1 8FV      -0.085000
     20 C17         -5.4520    -2.6950     1.3850 ca         1 8FV      -0.100000
     21 C21         -2.2780    -0.7800    -1.9470 ca         1 8FV      -0.155000
     22 N5           6.4640    -0.6770    -0.1970 nc         1 8FV      -0.370300
     23 O2           6.3910    -0.3080     1.1170 os         1 8FV      -0.074700
     24 C4           2.9340     0.2330     0.1800 ca         1 8FV      -0.003000
     25 C24          2.4940     1.5310     0.3850 ca         1 8FV      -0.089000
     26 N1           0.4710     3.0030     0.4200 na         1 8FV      -0.324300
     27 C22         -3.0220     3.2800     0.0460 ca         1 8FV       0.172300
     28 C23         -4.1400     4.2690     0.1130 c3         1 8FV      -0.134400
     29 N3          -3.3490     2.0260    -0.2780 nb         1 8FV      -0.207000
     30 C13         -2.7860    -0.2510    -0.7910 cq         1 8FV      -0.091500
     31 N2          -3.5140    -2.8120    -1.6800 nb         1 8FV      -0.654000
     32 C14         -3.6950    -1.0310    -0.0280 ca         1 8FV      -0.052000
     33 H3           5.2020    -0.2680     3.5260 hc         1 8FV       0.063033
     34 H1           5.3530     1.4190     3.0410 hc         1 8FV       0.063033
     35 H2           3.7870     0.6140     2.9450 hc         1 8FV       0.063033
     36 H20          4.5190     0.0200    -2.5920 hc         1 8FV       0.057367
     37 H19          5.8930    -1.0910    -2.6480 hc         1 8FV       0.057367
     38 H21          4.2850    -1.6770    -2.2040 hc         1 8FV       0.057367
     39 H6           0.9080    -3.2670     0.0940 h1         1 8FV       0.043700
     40 H5           1.2060    -2.8980    -1.6210 h1         1 8FV       0.043700
     41 H4           2.3080    -3.9670    -0.7350 h1         1 8FV       0.043700
     42 H7          -0.0540    -1.2840    -0.5170 ha         1 8FV       0.133000
     43 H9          -4.0100     0.3680     1.5960 ha         1 8FV       0.126000
     44 H10         -5.5370    -1.0880     2.8250 ha         1 8FV       0.116000
     45 H13         -2.2830    -2.4810    -3.2730 h4         1 8FV       0.020100
     46 H12         -5.1600    -4.1130    -0.1900 ha         1 8FV       0.131000
     47 H11         -6.1350    -3.3240     1.9400 ha         1 8FV       0.117000
     48 H14         -1.5850    -0.2200    -2.5610 ha         1 8FV       0.131000
     49 H18          3.2030     2.3120     0.6250 ha         1 8FV       0.126000
     50 H8           0.8900     3.8830     0.6750 hn         1 8FV       0.369000
     51 H17         -4.4140     4.5940    -0.8940 hc         1 8FV       0.061367
     52 H15         -5.0270     3.8250     0.5600 hc         1 8FV       0.061367
     53 H16         -3.8520     5.1500     0.6820 hc         1 8FV       0.061367
     54 O1           2.5360    -2.0200    -0.2780 os         1 8FV      -0.333100
@<TRIPOS>BOND
     1     1     2 1   
     2     1    33 1   
     3     1    34 1   
     4     1    35 1   
     5     2     3 2   
     6     2    23 1   
     7     3     4 1   
     8     3    24 1   
     9     4     5 1   
    10     4    22 2   
    11     5    36 1   
    12     5    37 1   
    13     5    38 1   
    14     6    12 ar  
    15     6    27 ar  
    16     7     9 ar  
    17     7    24 ar  
    18     7    54 1   
    19     8    39 1   
    20     8    40 1   
    21     8    41 1   
    22     8    54 1   
    23     9    10 ar  
    24     9    42 1   
    25    10    11 1   
    26    10    13 ar  
    27    11    12 ar  
    28    11    14 1   
    29    12    26 1   
    30    13    25 ar  
    31    13    26 1   
    32    14    29 2   
    33    14    30 1   
    34    15    16 ar  
    35    15    32 ar  
    36    15    43 1   
    37    16    20 ar  
    38    16    44 1   
    39    17    21 ar  
    40    17    31 ar  
    41    17    45 1   
    42    18    19 ar  
    43    18    31 ar  
    44    18    32 ar  
    45    19    20 ar  
    46    19    46 1   
    47    20    47 1   
    48    21    30 2   
    49    21    48 1   
    50    22    23 1   
    51    24    25 ar  
    52    25    49 1   
    53    26    50 1   
    54    27    28 1   
    55    27    29 ar  
    56    28    51 1   
    57    28    52 1   
    58    28    53 1   
    59    30    32 1   
@<TRIPOS>SUBSTRUCTURE
     1 8FV         1 TEMP              0 ****  ****    0 ROOT
