@<TRIPOS>MOLECULE
8FX
   51    55     1     0     0
SMALL
abcg2


@<TRIPOS>ATOM
      1 C4           0.5170    -1.1160    -0.2770 ca         1 8FX       0.417900
      2 C5           1.9500    -1.1550    -0.4270 ca         1 8FX      -0.165000
      3 C6           2.5450     0.0430    -0.8710 ca         1 8FX       0.051000
      4 N1           1.8130     1.1560    -1.1360 nb         1 8FX      -0.194000
      5 N3          -0.1600    -0.0240    -0.5620 nb         1 8FX      -0.244000
      6 C2           0.5280     1.0470    -0.9690 ca         1 8FX       0.142500
      7 CAA          2.7510    -2.2810    -0.1710 ca         1 8FX      -0.067000
      8 CAB          4.1070    -2.1970    -0.3530 ca         1 8FX       0.104000
      9 CAC          4.7150    -1.0110    -0.7900 ca         1 8FX      -0.076000
     10 CAD          3.9420     0.0900    -1.0450 ca         1 8FX      -0.087000
     11 CAL         -1.5150    -2.3630     0.3160 cc         1 8FX       0.491900
     12 CAM         -2.5920    -1.4930     0.0610 cc         1 8FX      -0.199000
     13 CAN         -3.7080    -2.2290     0.4080 cd         1 8FX      -0.096300
     14 CAQ         -5.1250    -1.8510     0.3520 cx         1 8FX      -0.070400
     15 CAR         -0.3170     2.2240    -1.3950 c          1 8FX       0.536600
     16 CAT          0.7110     3.5830     0.4050 c6         1 8FX       0.113000
     17 CAU         -0.0600     4.3120     1.5000 c6         1 8FX       0.149500
     18 CAW         -1.4850     5.3160    -0.1460 c6         1 8FX       0.140800
     19 CAX         -0.7390     4.6150    -1.2650 c6         1 8FX       0.096000
     20 CAY          0.8480     4.5890     2.6840 c3         1 8FX      -0.091100
     21 CBB         -6.1270    -2.4200     1.3200 cx         1 8FX      -0.123900
     22 CBC         -6.1750    -2.8260    -0.1140 cx         1 8FX      -0.123900
     23 NAK         -0.1440    -2.2020     0.1550 nu         1 8FX      -0.872800
     24 NAO         -3.2520    -3.4230     0.8240 na         1 8FX      -0.000200
     25 NAP         -1.9230    -3.5280     0.7780 nd         1 8FX      -0.578800
     26 NAS         -0.1170     3.3940    -0.7750 n          1 8FX      -0.393800
     27 NAV         -0.5800     5.5560     0.9610 n7         1 8FX      -0.863400
     28 OAZ         -1.1030     2.0500    -2.3160 o          1 8FX      -0.581100
     29 CL           5.0990    -3.5790    -0.0440 cl         1 8FX      -0.192000
     30 H1           2.3290    -3.2180     0.1660 ha         1 8FX       0.126000
     31 H2           5.7870    -0.9690    -0.9250 ha         1 8FX       0.135000
     32 H3           4.3920     1.0130    -1.3840 ha         1 8FX       0.141000
     33 H4          -2.5660    -0.4890    -0.3210 ha         1 8FX       0.179000
     34 H5          -5.2720    -0.8180     0.0630 hc         1 8FX       0.102700
     35 H6           1.6000     4.1640     0.1360 h1         1 8FX       0.059700
     36 H7           1.0480     2.6260     0.7930 h1         1 8FX       0.059700
     37 H8          -0.8760     3.6440     1.8270 h1         1 8FX       0.027700
     38 H9          -1.8630     6.2690    -0.5180 h1         1 8FX       0.040200
     39 H10         -2.3570     4.7050     0.1390 h1         1 8FX       0.040200
     40 H11         -1.4150     4.3780    -2.0820 h1         1 8FX       0.067200
     41 H12          0.0450     5.2720    -1.6530 h1         1 8FX       0.067200
     42 H13          1.7010     5.2010     2.3860 hc         1 8FX       0.041367
     43 H14          0.3090     5.1210     3.4700 hc         1 8FX       0.041367
     44 H15          1.2270     3.6600     3.1120 hc         1 8FX       0.041367
     45 H16         -5.7790    -3.1420     2.0490 hc         1 8FX       0.075200
     46 H17         -6.8890    -1.7500     1.6950 hc         1 8FX       0.075200
     47 H19         -6.9710    -2.4360    -0.7350 hc         1 8FX       0.075200
     48 H20         -5.8540    -3.8260    -0.3770 hc         1 8FX       0.075200
     49 H22          0.3890    -3.0200     0.4050 hn         1 8FX       0.516000
     50 H23         -3.7870    -4.2070     1.1630 hn         1 8FX       0.373000
     51 H24         -1.0620     6.0640     1.6920 hn         1 8FX       0.414000
@<TRIPOS>BOND
     1     1     2 ar  
     2     1     5 ar  
     3     1    23 1   
     4     2     3 ar  
     5     2     7 ar  
     6     3     4 ar  
     7     3    10 ar  
     8     4     6 ar  
     9     5     6 ar  
    10     6    15 1   
    11     7     8 ar  
    12     7    30 1   
    13     8     9 ar  
    14     8    29 1   
    15     9    10 ar  
    16     9    31 1   
    17    10    32 1   
    18    11    12 1   
    19    11    23 1   
    20    11    25 2   
    21    12    13 2   
    22    12    33 1   
    23    13    14 1   
    24    13    24 1   
    25    14    21 1   
    26    14    22 1   
    27    14    34 1   
    28    15    26 1   
    29    15    28 2   
    30    16    17 1   
    31    16    26 1   
    32    16    35 1   
    33    16    36 1   
    34    17    20 1   
    35    17    27 1   
    36    17    37 1   
    37    18    19 1   
    38    18    27 1   
    39    18    38 1   
    40    18    39 1   
    41    19    26 1   
    42    19    40 1   
    43    19    41 1   
    44    20    42 1   
    45    20    43 1   
    46    20    44 1   
    47    21    22 1   
    48    21    45 1   
    49    21    46 1   
    50    22    47 1   
    51    22    48 1   
    52    23    49 1   
    53    24    25 1   
    54    24    50 1   
    55    27    51 1   
@<TRIPOS>SUBSTRUCTURE
     1 8FX         1 TEMP              0 ****  ****    0 ROOT
