@<TRIPOS>MOLECULE
8FX
   51    55     1     0     0
SMALL
No Charge or Current Charge


@<TRIPOS>ATOM
      1 C4           0.3580    -1.1100    -0.0460 ca         1 8FX       0.417900
      2 C5           1.7440    -1.1400    -0.3300 ca         1 8FX      -0.165000
      3 C6           2.3310     0.0470    -0.8340 ca         1 8FX       0.051000
      4 N1           1.5830     1.1520    -1.0250 nb         1 8FX      -0.194000
      5 N3          -0.3680     0.0040    -0.2360 nb         1 8FX      -0.244000
      6 C2           0.2670     1.1000    -0.7080 ca         1 8FX       0.142500
      7 CAA          2.5450    -2.2930    -0.1430 ca         1 8FX      -0.067000
      8 CAB          3.9140    -2.2570    -0.4500 ca         1 8FX       0.104000
      9 CAC          4.4960    -1.0810    -0.9450 ca         1 8FX      -0.076000
     10 CAD          3.7050     0.0640    -1.1360 ca         1 8FX      -0.087000
     11 CAL         -1.6100    -2.5960     0.5810 cc         1 8FX       0.491900
     12 CAM         -2.6930    -1.9740    -0.0460 cc         1 8FX      -0.199000
     13 CAN         -3.8010    -2.6850     0.3020 cd         1 8FX      -0.096300
     14 CAQ         -5.1970    -2.4070    -0.1260 cx         1 8FX      -0.070400
     15 CAR         -0.5870     2.3390    -0.9630 c          1 8FX       0.536600
     16 CAT          0.9890     3.8890     0.3210 c6         1 8FX       0.113000
     17 CAU          0.3830     4.6980     1.5120 c6         1 8FX       0.149500
     18 CAW         -1.3250     5.6470     0.0120 c6         1 8FX       0.140800
     19 CAX         -0.7190     4.8670    -1.1870 c6         1 8FX       0.096000
     20 CAY          1.4600     5.0790     2.5550 c3         1 8FX      -0.091100
     21 CBB         -6.3560    -2.6540     0.8130 cx         1 8FX      -0.123900
     22 CBC         -6.1620    -3.5380    -0.3960 cx         1 8FX      -0.123900
     23 NAK         -0.3100    -2.2160     0.4770 nu         1 8FX      -0.872800
     24 NAO         -3.3030    -3.7120     1.1240 na         1 8FX      -0.000200
     25 NAP         -1.9130    -3.6480     1.2870 nd         1 8FX      -0.578800
     26 NAS         -0.0210     3.6220    -0.7490 n          1 8FX      -0.393800
     27 NAV         -0.3030     5.9320     1.0540 n7         1 8FX      -0.863400
     28 OAZ         -1.7350     2.2350    -1.3890 o          1 8FX      -0.581100
     29 Cl           4.9030    -3.6930    -0.2160 cl         1 8FX      -0.192000
     30 H1           2.1240    -3.2230     0.2290 ha         1 8FX       0.126000
     31 H2           5.5570    -1.0580    -1.1820 ha         1 8FX       0.135000
     32 H3           4.1620     0.9720    -1.5230 ha         1 8FX       0.141000
     33 H4          -2.6490    -1.1060    -0.6910 ha         1 8FX       0.179000
     34 H5          -5.2770    -1.5370    -0.7750 hc         1 8FX       0.102700
     35 H6           1.8240     4.4530    -0.1160 h1         1 8FX       0.059700
     36 H7           1.4010     2.9560     0.7250 h1         1 8FX       0.059700
     37 H8          -0.3580     4.0580     2.0150 h1         1 8FX       0.027700
     38 H9          -1.7620     6.5910    -0.3450 h1         1 8FX       0.040200
     39 H10         -2.1380     5.0510     0.4530 h1         1 8FX       0.040200
     40 H11         -1.5120     4.6390    -1.9130 h1         1 8FX       0.067200
     41 H12          0.0060     5.5130    -1.7010 h1         1 8FX       0.067200
     42 H13          2.2290     5.7280     2.1180 hc         1 8FX       0.041367
     43 H14          1.0190     5.6070     3.4090 hc         1 8FX       0.041367
     44 H15          1.9610     4.1840     2.9460 hc         1 8FX       0.041367
     45 H16         -6.1440    -3.0780     1.7920 hc         1 8FX       0.075200
     46 H17         -7.1790    -1.9440     0.7960 hc         1 8FX       0.075200
     47 H19         -6.8560    -3.4220    -1.2260 hc         1 8FX       0.075200
     48 H20         -5.8210    -4.5570    -0.2310 hc         1 8FX       0.075200
     49 H22          0.2960    -2.9160     0.8890 hn         1 8FX       0.516000
     50 H23         -3.8580    -4.4440     1.5660 hn         1 8FX       0.373000
     51 H24         -0.7600     6.3810     1.8580 hn         1 8FX       0.414000
@<TRIPOS>BOND
     1     1     2 ar  
     2     1     5 ar  
     3     1    23 1   
     4     2     3 ar  
     5     2     7 ar  
     6     3     4 ar  
     7     3    10 ar  
     8     4     6 ar  
     9     5     6 ar  
    10     6    15 1   
    11     7     8 ar  
    12     7    30 1   
    13     8     9 ar  
    14     8    29 1   
    15     9    10 ar  
    16     9    31 1   
    17    10    32 1   
    18    11    12 1   
    19    11    23 1   
    20    11    25 2   
    21    12    13 2   
    22    12    33 1   
    23    13    14 1   
    24    13    24 1   
    25    14    21 1   
    26    14    22 1   
    27    14    34 1   
    28    15    26 1   
    29    15    28 2   
    30    16    17 1   
    31    16    26 1   
    32    16    35 1   
    33    16    36 1   
    34    17    20 1   
    35    17    27 1   
    36    17    37 1   
    37    18    19 1   
    38    18    27 1   
    39    18    38 1   
    40    18    39 1   
    41    19    26 1   
    42    19    40 1   
    43    19    41 1   
    44    20    42 1   
    45    20    43 1   
    46    20    44 1   
    47    21    22 1   
    48    21    45 1   
    49    21    46 1   
    50    22    47 1   
    51    22    48 1   
    52    23    49 1   
    53    24    25 1   
    54    24    50 1   
    55    27    51 1   
@<TRIPOS>SUBSTRUCTURE
     1 8FX         1 TEMP              0 ****  ****    0 ROOT
