@<TRIPOS>MOLECULE
8FY
   47    51     1     0     0
SMALL
No Charge or Current Charge


@<TRIPOS>ATOM
      1 C5           2.1400     0.3280     0.0880 ca         1 8FY       0.475900
      2 C7           0.7970     2.4820    -0.3070 c3         1 8FY       0.193500
      3 C8          -0.6750     2.8910    -0.1900 ca         1 8FY       0.114300
      4 C10         -2.8780     2.4560    -0.7050 ca         1 8FY       0.120900
      5 C15          0.9670    -1.9670     0.2280 cc         1 8FY      -0.048400
      6 C21         -0.4570    -1.6920     0.3810 ca         1 8FY      -0.008800
      7 C22         -0.9230    -0.9580     1.4860 ca         1 8FY      -0.094000
      8 C24         -3.2150    -1.0560     0.6330 ca         1 8FY       0.263000
      9 C26         -5.3930    -1.1370    -0.1850 ca         1 8FY       0.347900
     10 C28         -3.6490    -2.2230    -1.4630 ca         1 8FY      -0.059000
     11 C1           6.9470     0.2070    -0.3350 c3         1 8FY       0.233100
     12 C3           4.3960     0.1470    -0.1070 ca         1 8FY       0.438900
     13 N4           3.3210     0.9510    -0.0380 nb         1 8FY      -0.365000
     14 N6           0.9870     1.0840     0.1270 nu         1 8FY      -0.928100
     15 N9          -1.5810     2.1100    -0.8280 nb         1 8FY      -0.184500
     16 C11         -3.2660     3.5780     0.0460 ca         1 8FY      -0.222000
     17 C12         -2.2530     4.3300     0.6650 ca         1 8FY       0.120900
     18 N13         -0.9530     3.9890     0.5500 nb         1 8FY      -0.184500
     19 C14          2.0730    -1.0640     0.1430 ca         1 8FY      -0.292800
     20 C16          1.4760    -3.2500     0.1700 cd         1 8FY      -0.178100
     21 N17          2.8900    -3.1550     0.0650 na         1 8FY      -0.321400
     22 C19          3.2180    -1.8050     0.0430 ca         1 8FY       0.192500
     23 N20          4.4150    -1.2050    -0.0790 nb         1 8FY      -0.308000
     24 C23         -2.2880    -0.6440     1.6080 ca         1 8FY      -0.082000
     25 N25         -4.5240    -0.7330     0.7690 nb         1 8FY      -0.666000
     26 C27         -5.0010    -1.8790    -1.3100 ca         1 8FY      -0.171000
     27 C29         -2.7400    -1.8050    -0.4750 ca         1 8FY      -0.079000
     28 C30         -1.3730    -2.1230    -0.5940 ca         1 8FY      -0.089000
     29 H1           1.1110     2.6020    -1.3530 h1         1 8FY       0.076700
     30 H2           1.4180     3.1560     0.3010 h1         1 8FY       0.076700
     31 H3          -3.6090     1.8270    -1.2110 h4         1 8FY       0.031600
     32 H4          -0.2240    -0.6270     2.2520 ha         1 8FY       0.127000
     33 H5          -6.4370    -0.8570    -0.0410 h4         1 8FY       0.016100
     34 H6          -3.3190    -2.7970    -2.3260 ha         1 8FY       0.119000
     35 H7           7.1690    -0.3940     0.5570 h1         1 8FY       0.036367
     36 H8           7.0120    -0.4420    -1.2190 h1         1 8FY       0.036367
     37 H9           7.7110     0.9910    -0.4240 h1         1 8FY       0.036367
     38 H10          5.5360     1.8250    -0.2520 hn         1 8FY       0.503000
     39 H11          0.1470     0.5100     0.1690 hn         1 8FY       0.535000
     40 H12         -4.3130     3.8550     0.1430 ha         1 8FY       0.138000
     41 H13         -2.4820     5.2130     1.2600 h4         1 8FY       0.031600
     42 H14          0.9530    -4.2030     0.2110 h4         1 8FY       0.217000
     43 H15          3.5500    -3.9240     0.0100 hn         1 8FY       0.359000
     44 H16         -2.6330    -0.0710     2.4640 ha         1 8FY       0.130000
     45 H17         -5.7380    -2.1800    -2.0480 ha         1 8FY       0.123000
     46 H18         -1.0160    -2.6860    -1.4530 ha         1 8FY       0.118000
     47 N2           5.6040     0.8060    -0.2320 nu         1 8FY      -0.929100
@<TRIPOS>BOND
     1     1    13 ar  
     2     1    14 1   
     3     1    19 ar  
     4     2     3 1   
     5     2    14 1   
     6     2    29 1   
     7     2    30 1   
     8     3    15 ar  
     9     3    18 ar  
    10     4    15 ar  
    11     4    16 ar  
    12     4    31 1   
    13     5     6 1   
    14     5    19 1   
    15     5    20 2   
    16     6     7 ar  
    17     6    28 ar  
    18     7    24 ar  
    19     7    32 1   
    20     8    24 ar  
    21     8    25 ar  
    22     8    27 ar  
    23     9    25 ar  
    24     9    26 ar  
    25     9    33 1   
    26    10    26 ar  
    27    10    27 ar  
    28    10    34 1   
    29    11    35 1   
    30    11    36 1   
    31    11    37 1   
    32    11    47 1   
    33    12    13 ar  
    34    12    23 ar  
    35    12    47 1   
    36    14    39 1   
    37    16    17 ar  
    38    16    40 1   
    39    17    18 ar  
    40    17    41 1   
    41    19    22 ar  
    42    20    21 1   
    43    20    42 1   
    44    21    22 1   
    45    21    43 1   
    46    22    23 ar  
    47    24    44 1   
    48    26    45 1   
    49    27    28 ar  
    50    28    46 1   
    51    38    47 1   
@<TRIPOS>SUBSTRUCTURE
     1 8FY         1 TEMP              0 ****  ****    0 ROOT
