@<TRIPOS>MOLECULE
8FY
   47    51     1     0     0
SMALL
bcc


@<TRIPOS>ATOM
      1 C5           2.0100     0.3770     0.0650 ca         1 8FY       0.804200
      2 C7           0.9480     2.5850     0.0250 c3         1 8FY       0.193500
      3 C8          -0.4560     3.1280     0.0070 ca         1 8FY       0.640300
      4 C10         -2.6880     2.7480    -0.0100 ca         1 8FY       0.449200
      5 C15          0.8970    -2.0410     0.0740 cc         1 8FY      -0.048400
      6 C21         -0.5490    -1.8470     0.2260 ca         1 8FY      -0.008800
      7 C22         -1.0470    -1.1070     1.3310 ca         1 8FY      -0.112000
      8 C24         -3.3140    -1.3880     0.5580 ca         1 8FY       0.393600
      9 C26         -5.4780    -1.6050    -0.1360 ca         1 8FY       0.413200
     10 C28         -3.7800    -2.6440    -1.4570 ca         1 8FY      -0.077000
     11 C1           6.7480     0.2390    -0.2500 c3         1 8FY       0.233100
     12 C3           4.3030     0.2000    -0.0510 ca         1 8FY       0.964900
     13 N4           3.1970     0.9670     0.0210 nb         1 8FY      -0.891000
     14 N6           0.9170     1.1520     0.0880 nu         1 8FY      -0.872900
     15 N9          -1.4540     2.2600    -0.0030 nb         1 8FY      -0.710500
     16 C11         -2.9310     4.1090    -0.0160 ca         1 8FY      -0.370600
     17 C12         -1.8140     4.9310    -0.0120 ca         1 8FY       0.449200
     18 N13         -0.5790     4.4500     0.0020 nb         1 8FY      -0.710500
     19 C14          1.9240    -1.0370     0.0720 ca         1 8FY      -0.423400
     20 C16          1.5420    -3.2380    -0.0610 cd         1 8FY      -0.128100
     21 N17          2.8970    -3.0210    -0.1390 na         1 8FY      -0.271100
     22 C19          3.1490    -1.6930    -0.0600 ca         1 8FY       0.520800
     23 N20          4.3550    -1.1240    -0.1220 nb         1 8FY      -0.834000
     24 C23         -2.3840    -0.8800     1.4920 ca         1 8FY      -0.165300
     25 N25         -4.6310    -1.1300     0.7380 nb         1 8FY      -0.666000
     26 C27         -5.1040    -2.3730    -1.2590 ca         1 8FY      -0.254300
     27 C29         -2.8310    -2.1490    -0.5350 ca         1 8FY      -0.144300
     28 C30         -1.4430    -2.3610    -0.6820 ca         1 8FY      -0.107000
     29 H1           1.4730     2.9390    -0.8690 h1         1 8FY       0.076700
     30 H2           1.4800     3.0140     0.8790 h1         1 8FY       0.076700
     31 H3          -3.4980     2.0270    -0.0100 h4         1 8FY       0.031600
     32 H4          -0.3480    -0.7220     2.0640 ha         1 8FY       0.145000
     33 H5          -6.5270    -1.3840     0.0310 h4         1 8FY       0.016100
     34 H6          -3.4500    -3.2260    -2.3090 ha         1 8FY       0.137000
     35 H7           6.9460    -0.5120     0.5160 h1         1 8FY       0.036367
     36 H8           6.8270    -0.2520    -1.2240 h1         1 8FY       0.036367
     37 H9           7.5230     0.9980    -0.1870 h1         1 8FY       0.036367
     38 H10          5.4150     1.8750    -0.1190 hn         1 8FY       0.447800
     39 H11         -0.0030     0.7360     0.0640 hn         1 8FY       0.479800
     40 H12         -3.9330     4.5110    -0.0240 ha         1 8FY       0.156000
     41 H13         -1.9180     6.0100    -0.0190 h4         1 8FY       0.031600
     42 H14          1.1400    -4.2380    -0.0760 h4         1 8FY       0.167000
     43 H15          3.5960    -3.7390    -0.2300 hn         1 8FY       0.308700
     44 H16         -2.7530    -0.3110     2.3350 ha         1 8FY       0.148000
     45 H17         -5.8630    -2.7310    -1.9420 ha         1 8FY       0.141000
     46 H18         -1.0860    -2.9140    -1.5430 ha         1 8FY       0.136000
     47 N2           5.4740     0.8740    -0.0510 nu         1 8FY      -0.873900
@<TRIPOS>BOND
     1     1    13 ar  
     2     1    14 1   
     3     1    19 ar  
     4     2     3 1   
     5     2    14 1   
     6     2    29 1   
     7     2    30 1   
     8     3    15 ar  
     9     3    18 ar  
    10     4    15 ar  
    11     4    16 ar  
    12     4    31 1   
    13     5     6 1   
    14     5    19 1   
    15     5    20 2   
    16     6     7 ar  
    17     6    28 ar  
    18     7    24 ar  
    19     7    32 1   
    20     8    24 ar  
    21     8    25 ar  
    22     8    27 ar  
    23     9    25 ar  
    24     9    26 ar  
    25     9    33 1   
    26    10    26 ar  
    27    10    27 ar  
    28    10    34 1   
    29    11    35 1   
    30    11    36 1   
    31    11    37 1   
    32    11    47 1   
    33    12    13 ar  
    34    12    23 ar  
    35    12    47 1   
    36    14    39 1   
    37    16    17 ar  
    38    16    40 1   
    39    17    18 ar  
    40    17    41 1   
    41    19    22 ar  
    42    20    21 1   
    43    20    42 1   
    44    21    22 1   
    45    21    43 1   
    46    22    23 ar  
    47    24    44 1   
    48    26    45 1   
    49    27    28 ar  
    50    28    46 1   
    51    38    47 1   
@<TRIPOS>SUBSTRUCTURE
     1 8FY         1 TEMP              0 ****  ****    0 ROOT
