@<TRIPOS>MOLECULE
8FZ
   24    25     1     0     0
SMALL
abcg2


@<TRIPOS>ATOM
      1 C4          13.7020   100.0740    27.8130 cc         1 8FZ      -0.165000
      2 C5          13.8320    99.9510    26.4730 cd         1 8FZ       0.325300
      3 C6          15.6770    99.6060    25.0570 ca         1 8FZ       0.066100
      4 N1          17.4770    99.4560    23.4950 nb         1 8FZ      -0.640000
      5 C7          15.8420    98.2820    25.4350 ca         1 8FZ      -0.124000
      6 C8          16.8530    97.5590    24.8160 ca         1 8FZ      -0.133000
      7 C9          17.6430    98.1790    23.8570 ca         1 8FZ       0.307900
      8 C10         16.5090   100.1540    24.0860 ca         1 8FZ       0.324900
      9 N           11.2380    96.6570    26.2170 n8         1 8FZ      -0.993200
     10 C1          10.8290    98.0050    26.6560 c3         1 8FZ       0.120500
     11 C2          12.0020    98.8470    26.9940 cd         1 8FZ       0.150300
     12 O1          12.8160    99.2210    25.9420 os         1 8FZ      -0.278000
     13 C3          12.5050    99.3510    28.1480 cc         1 8FZ      -0.158000
     14 O           14.7280   100.4550    25.5980 os         1 8FZ      -0.330400
     15 H7          14.3700   100.6000    28.4740 ha         1 8FZ       0.155000
     16 H1          15.2100    97.8290    26.1860 ha         1 8FZ       0.139000
     17 H9          17.0230    96.5230    25.0760 ha         1 8FZ       0.126000
     18 H10         18.4360    97.6330    23.3600 h4         1 8FZ       0.024100
     19 H11         16.3770   101.1900    23.7920 h4         1 8FZ       0.035100
     20 H2          10.4060    96.1070    26.0270 hn         1 8FZ       0.400500
     21 H3          11.7310    96.7280    25.3310 hn         1 8FZ       0.400500
     22 H5          10.2140    98.5250    25.9090 h1         1 8FZ       0.051200
     23 H4          10.2260    97.9060    27.5600 h1         1 8FZ       0.051200
     24 H6          12.0800    99.2230    29.1300 ha         1 8FZ       0.146000
@<TRIPOS>BOND
     1     1     2 2   
     2     1    13 1   
     3     1    15 1   
     4     2    12 1   
     5     2    14 1   
     6     3     5 ar  
     7     3     8 ar  
     8     3    14 1   
     9     4     7 ar  
    10     4     8 ar  
    11     5     6 ar  
    12     5    16 1   
    13     6     7 ar  
    14     6    17 1   
    15     7    18 1   
    16     8    19 1   
    17     9    10 1   
    18     9    20 1   
    19     9    21 1   
    20    10    11 1   
    21    10    22 1   
    22    10    23 1   
    23    11    12 1   
    24    11    13 2   
    25    13    24 1   
@<TRIPOS>SUBSTRUCTURE
     1 8FZ         1 TEMP              0 ****  ****    0 ROOT
