@<TRIPOS>MOLECULE
8FZ
   24    25     1     0     0
SMALL
No Charge or Current Charge


@<TRIPOS>ATOM
      1 C4          13.9820    99.2140    27.1280 cc         1 8FZ      -0.165000
      2 C5          13.5890    99.2350    25.8220 cd         1 8FZ       0.325300
      3 C6          15.6900    99.3710    24.6500 ca         1 8FZ       0.066100
      4 N1          17.8970   100.0660    23.8730 nb         1 8FZ      -0.640000
      5 C7          16.2080    98.1350    25.0860 ca         1 8FZ      -0.124000
      6 C8          17.5830    97.8950    24.9110 ca         1 8FZ      -0.133000
      7 C9          18.3860    98.8800    24.3070 ca         1 8FZ       0.307900
      8 C10         16.5690   100.2970    24.0420 ca         1 8FZ       0.324900
      9 N           10.0850    96.9170    26.8450 n8         1 8FZ      -0.993200
     10 C1          10.3590    98.3500    27.1250 c3         1 8FZ       0.120500
     11 C2          11.8150    98.7130    26.9170 cd         1 8FZ       0.150300
     12 O1          12.2570    98.9810    25.6360 os         1 8FZ      -0.278000
     13 C3          12.8220    98.8510    27.8430 cc         1 8FZ      -0.158000
     14 O           14.3490    99.6750    24.7750 os         1 8FZ      -0.330400
     15 H7          14.9610    99.4400    27.5370 ha         1 8FZ       0.155000
     16 H1          15.5700    97.3800    25.5380 ha         1 8FZ       0.139000
     17 H9          18.0270    96.9570    25.2330 ha         1 8FZ       0.126000
     18 H10         19.4530    98.7130    24.1610 h4         1 8FZ       0.024100
     19 H11         16.1970   101.2570    23.6840 h4         1 8FZ       0.035100
     20 H2           9.0740    96.7430    26.9180 hn         1 8FZ       0.400500
     21 H3          10.2920    96.7240    25.8560 hn         1 8FZ       0.400500
     22 H5           9.7380    98.9710    26.4630 h1         1 8FZ       0.051200
     23 H4          10.0770    98.5730    28.1640 h1         1 8FZ       0.051200
     24 H6          12.7460    98.7230    28.9190 ha         1 8FZ       0.146000
@<TRIPOS>BOND
     1     1     2 2   
     2     1    13 1   
     3     1    15 1   
     4     2    12 1   
     5     2    14 1   
     6     3     5 ar  
     7     3     8 ar  
     8     3    14 1   
     9     4     7 ar  
    10     4     8 ar  
    11     5     6 ar  
    12     5    16 1   
    13     6     7 ar  
    14     6    17 1   
    15     7    18 1   
    16     8    19 1   
    17     9    10 1   
    18     9    20 1   
    19     9    21 1   
    20    10    11 1   
    21    10    22 1   
    22    10    23 1   
    23    11    12 1   
    24    11    13 2   
    25    13    24 1   
@<TRIPOS>SUBSTRUCTURE
     1 8FZ         1 TEMP              0 ****  ****    0 ROOT
