@<TRIPOS>MOLECULE
8G0
   16    16     1     0     0
SMALL
bcc


@<TRIPOS>ATOM
      1 O01         -3.5900    -0.0430    -0.0700 o          1 8G0      -0.855550
      2 C02         -2.5340     0.6200    -0.0410 c          1 8G0       0.923700
      3 O03         -2.4360     1.8620    -0.1240 o          1 8G0      -0.855550
      4 C04         -1.2320    -0.1670     0.0440 ca         1 8G0      -0.167600
      5 C05         -1.2180    -1.5650     0.0380 ca         1 8G0      -0.127500
      6 C06         -0.0090    -2.2600     0.0080 ca         1 8G0      -0.211000
      7 C07          1.2020    -1.5780    -0.0180 ca         1 8G0      -0.127500
      8 C08          1.2140    -0.1790     0.0370 ca         1 8G0      -0.167600
      9 C09          2.5250     0.5880     0.1000 c          1 8G0       0.923700
     10 O10          2.4540     1.8310     0.0840 o          1 8G0      -0.855550
     11 O11          3.5830    -0.0870     0.0250 o          1 8G0      -0.855550
     12 C12         -0.0030     0.4930     0.0510 ca         1 8G0      -0.077000
     13 H2          -2.1480    -2.1180     0.0680 ha         1 8G0       0.112500
     14 H3          -0.0300    -3.3450     0.0110 ha         1 8G0       0.072000
     15 H4           2.1280    -2.1310    -0.0790 ha         1 8G0       0.112500
     16 H6          -0.0020     1.5740     0.0670 ha         1 8G0       0.157000
@<TRIPOS>BOND
     1     1     2 1   
     2     2     3 1   
     3     2     4 1   
     4     4     5 ar  
     5     4    12 ar  
     6     5     6 ar  
     7     5    13 1   
     8     6     7 ar  
     9     6    14 1   
    10     7     8 ar  
    11     7    15 1   
    12     8     9 1   
    13     8    12 ar  
    14     9    10 1   
    15     9    11 1   
    16    12    16 1   
@<TRIPOS>SUBSTRUCTURE
     1 8G0         1 TEMP              0 ****  ****    0 ROOT
