@<TRIPOS>MOLECULE
8G0
   16    16     1     0     0
SMALL
No Charge or Current Charge


@<TRIPOS>ATOM
      1 O01         -3.6040    -0.0130    -0.0320 o          1 8G0      -0.750250
      2 C02         -2.5530     0.6120    -0.0170 c          1 8G0       0.713100
      3 O03         -2.5150     1.8350    -0.0130 o          1 8G0      -0.750250
      4 C04         -1.2410    -0.1600    -0.0020 ca         1 8G0      -0.167600
      5 C05         -1.2290    -1.5730    -0.0060 ca         1 8G0      -0.109500
      6 C06         -0.0160    -2.2770     0.0070 ca         1 8G0      -0.193000
      7 C07          1.2050    -1.5860     0.0250 ca         1 8G0      -0.109500
      8 C08          1.2310    -0.1730     0.0290 ca         1 8G0      -0.167600
      9 C09          2.5520     0.5850     0.0480 c          1 8G0       0.713100
     10 O10          2.5270     1.8080     0.0510 o          1 8G0      -0.750250
     11 O11          3.5960    -0.0510     0.0590 o          1 8G0      -0.750250
     12 C12         -0.0010     0.5260     0.0150 ca         1 8G0      -0.059000
     13 H2          -2.1630    -2.1320    -0.0200 ha         1 8G0       0.094500
     14 H3          -0.0220    -3.3640     0.0040 ha         1 8G0       0.054000
     15 H4           2.1320    -2.1550     0.0350 ha         1 8G0       0.094500
     16 H6           0.0050     1.6140     0.0180 ha         1 8G0       0.139000
@<TRIPOS>BOND
     1     1     2 1   
     2     2     3 1   
     3     2     4 1   
     4     4     5 ar  
     5     4    12 ar  
     6     5     6 ar  
     7     5    13 1   
     8     6     7 ar  
     9     6    14 1   
    10     7     8 ar  
    11     7    15 1   
    12     8     9 1   
    13     8    12 ar  
    14     9    10 1   
    15     9    11 1   
    16    12    16 1   
@<TRIPOS>SUBSTRUCTURE
     1 8G0         1 TEMP              0 ****  ****    0 ROOT
