@<TRIPOS>MOLECULE
8G1
   54    59     1     0     0
SMALL
bcc


@<TRIPOS>ATOM
      1 C1          -0.1120     1.1290    -0.7390 cc         1 8G1      -0.179200
      2 C2           0.8560     1.0460    -1.7030 cd         1 8G1       0.107900
      3 C3           2.2660     0.8450    -1.3570 c          1 8G1       0.653700
      4 C7           4.8920     1.6100     0.1610 c5         1 8G1      -0.087400
      5 C8           5.9000     0.9930    -0.8160 c5         1 8G1      -0.030100
      6 C9           5.6400    -0.4800    -0.7290 ca         1 8G1      -0.047300
      7 C10          4.4880    -0.7510    -0.0190 ca         1 8G1      -0.103300
      8 C11          4.0370    -2.0590     0.1390 ca         1 8G1       0.031000
      9 C12          4.7750    -3.1050    -0.4120 ca         1 8G1      -0.100000
     10 C13          5.9440    -2.8280    -1.1100 ca         1 8G1      -0.110000
     11 C14          6.3800    -1.5210    -1.2760 ca         1 8G1      -0.102000
     12 C15          2.8270    -2.3370     0.8420 cg         1 8G1       0.225800
     13 C16         -1.5470     1.3040    -1.1140 c          1 8G1       0.732700
     14 C19         -3.7400     2.1030    -0.4300 c3         1 8G1       0.149300
     15 C20         -4.6580     1.0790     0.1900 ca         1 8G1      -0.119300
     16 C21         -5.5530     1.4320     1.1920 ca         1 8G1      -0.098000
     17 C22         -6.3940     0.4870     1.7660 ca         1 8G1      -0.167000
     18 C24         -5.4400    -1.1920     0.3310 ca         1 8G1      -0.025600
     19 O3          -1.9590     0.9910    -2.2220 o          1 8G1      -0.615500
     20 N3          -2.3440     1.8190    -0.1550 n          1 8G1      -0.480800
     21 C25         -4.6080    -0.2450    -0.2380 ca         1 8G1      -0.074000
     22 CL          -5.3980    -2.8350    -0.1880 cl         1 8G1      -0.075400
     23 C23         -6.3280    -0.8180     1.3290 ca         1 8G1       0.147900
     24 F           -7.1270    -1.7430     1.8660 f          1 8G1      -0.125900
     25 C17         -1.8550     2.1560     1.1730 c6         1 8G1       0.108000
     26 C18         -0.8460     1.1350     1.6510 c6         1 8G1      -0.050200
     27 C            0.2530     1.0240     0.6420 cc         1 8G1      -0.010200
     28 C4           1.5530     0.8220     0.9450 cd         1 8G1      -0.091600
     29 C5           2.2430     0.6410     2.2380 c          1 8G1       0.739700
     30 O            1.7610     0.6550     3.3520 o          1 8G1      -0.588500
     31 N1           3.5410     0.4520     1.9170 ns         1 8G1      -0.592900
     32 C6           3.8580     0.5130     0.5150 c5         1 8G1       0.344100
     33 N            2.5120     0.7350    -0.0350 n          1 8G1      -0.325000
     34 O1           3.1300     0.7860    -2.2270 o          1 8G1      -0.645500
     35 O2           0.6290     1.1610    -2.9990 oh         1 8G1      -0.432100
     36 N2           1.8430    -2.5690     1.3960 n1         1 8G1      -0.343800
     37 H1           5.3950     1.8940     1.0860 hc         1 8G1       0.066700
     38 H2           4.4100     2.5070    -0.2230 hc         1 8G1       0.066700
     39 H3           5.7370     1.3390    -1.8370 hc         1 8G1       0.071700
     40 H4           6.9270     1.2400    -0.5490 hc         1 8G1       0.071700
     41 H5           4.4380    -4.1260    -0.2930 ha         1 8G1       0.149000
     42 H6           6.5150    -3.6460    -1.5280 ha         1 8G1       0.142000
     43 H7           7.2870    -1.3170    -1.8300 ha         1 8G1       0.142000
     44 H8          -3.8890     2.1430    -1.5070 h1         1 8G1       0.068700
     45 H9          -3.9720     3.0950    -0.0380 h1         1 8G1       0.068700
     46 H10         -5.6030     2.4580     1.5340 ha         1 8G1       0.135000
     47 H11         -7.0910     0.7600     2.5460 ha         1 8G1       0.153000
     48 H12         -3.9260    -0.5430    -1.0240 ha         1 8G1       0.167000
     49 H13         -1.4240     3.1610     1.1790 h1         1 8G1       0.050700
     50 H14         -2.7070     2.1650     1.8530 h1         1 8G1       0.050700
     51 H15         -0.4660     1.4240     2.6270 hc         1 8G1       0.085700
     52 H16         -1.3370     0.1640     1.7680 hc         1 8G1       0.085700
     53 H17          4.2650     0.3340     2.6110 hn         1 8G1       0.348500
     54 H18          1.4850     1.0960    -3.4570 ho         1 8G1       0.457000
@<TRIPOS>BOND
     1     1     2 2   
     2     1    13 1   
     3     1    27 1   
     4     2     3 1   
     5     2    35 1   
     6     3    33 1   
     7     3    34 2   
     8     4     5 1   
     9     4    32 1   
    10     4    37 1   
    11     4    38 1   
    12     5     6 1   
    13     5    39 1   
    14     5    40 1   
    15     6     7 ar  
    16     6    11 ar  
    17     7     8 ar  
    18     7    32 1   
    19     8     9 ar  
    20     8    12 1   
    21     9    10 ar  
    22     9    41 1   
    23    10    11 ar  
    24    10    42 1   
    25    11    43 1   
    26    12    36 3   
    27    13    19 2   
    28    13    20 1   
    29    14    15 1   
    30    14    20 1   
    31    14    44 1   
    32    14    45 1   
    33    15    16 ar  
    34    15    21 ar  
    35    16    17 ar  
    36    16    46 1   
    37    17    23 ar  
    38    17    47 1   
    39    18    21 ar  
    40    18    22 1   
    41    18    23 ar  
    42    20    25 1   
    43    21    48 1   
    44    23    24 1   
    45    25    26 1   
    46    25    49 1   
    47    25    50 1   
    48    26    27 1   
    49    26    51 1   
    50    26    52 1   
    51    27    28 2   
    52    28    29 1   
    53    28    33 1   
    54    29    30 2   
    55    29    31 1   
    56    31    32 1   
    57    31    53 1   
    58    32    33 1   
    59    35    54 1   
@<TRIPOS>SUBSTRUCTURE
     1 8G1         1 TEMP              0 ****  ****    0 ROOT
