@<TRIPOS>MOLECULE
8G1
   54    59     1     0     0
SMALL
No Charge or Current Charge


@<TRIPOS>ATOM
      1 C1          -0.1840     1.2180    -0.7940 cc         1 8G1      -0.179200
      2 C2           0.7550     0.8220    -1.7500 cd         1 8G1       0.107900
      3 C3           2.1870     0.5270    -1.4170 c          1 8G1       0.511200
      4 C7           4.8100     1.5560     0.3100 c5         1 8G1      -0.087400
      5 C8           5.8270     0.9770    -0.7530 c5         1 8G1      -0.030100
      6 C9           5.6000    -0.5150    -0.6490 ca         1 8G1      -0.047300
      7 C10          4.4590    -0.8440     0.0600 ca         1 8G1      -0.103300
      8 C11          4.0560    -2.1880     0.2110 ca         1 8G1       0.031000
      9 C12          4.8550    -3.1980    -0.3670 ca         1 8G1      -0.082000
     10 C13          6.0240    -2.8610    -1.0820 ca         1 8G1      -0.092000
     11 C14          6.3980    -1.5120    -1.2310 ca         1 8G1      -0.084000
     12 C15          2.8550    -2.5390     0.9220 cg         1 8G1       0.315000
     13 C16         -1.6130     1.4940    -1.1730 c          1 8G1       0.590200
     14 C19         -3.8670     2.2350    -0.3400 c3         1 8G1       0.149300
     15 C20         -4.6620     1.0520     0.1960 ca         1 8G1      -0.119300
     16 C21         -5.1700     1.0750     1.5100 ca         1 8G1      -0.080000
     17 C22         -5.8910    -0.0250     2.0080 ca         1 8G1      -0.149000
     18 C24         -5.5990    -1.1810    -0.1180 ca         1 8G1       0.066000
     19 O3          -2.0980     1.2520    -2.2700 o          1 8G1      -0.540000
     20 N3          -2.4100     2.0590    -0.1530 n          1 8G1      -0.413800
     21 C25         -4.8780    -0.0800    -0.6150 ca         1 8G1      -0.056000
     22 Cl          -5.8540    -2.5860    -1.1520 cl         1 8G1      -0.167000
     23 C23         -6.1050    -1.1500     1.1950 ca         1 8G1       0.183000
     24 F           -6.7990    -2.2020     1.6860 f          1 8G1      -0.161000
     25 C17         -1.8060     2.6210     1.0630 c6         1 8G1       0.108000
     26 C18         -0.7830     1.6480     1.6470 c6         1 8G1      -0.050200
     27 C            0.2500     1.3010     0.5960 cc         1 8G1      -0.010200
     28 C4           1.5710     0.9960     0.9000 cd         1 8G1      -0.091600
     29 C5           2.1850     0.8680     2.2430 c          1 8G1       0.597200
     30 O            1.6960     1.0270     3.3490 o          1 8G1      -0.513000
     31 N1           3.4820     0.4690     2.0180 ns         1 8G1      -0.525900
     32 C6           3.7810     0.3930     0.5890 c5         1 8G1       0.344100
     33 N            2.4980     0.7030    -0.0620 n          1 8G1      -0.258000
     34 O1           3.0020     0.1900    -2.2700 o          1 8G1      -0.570000
     35 O2           0.5000     0.6810    -3.0800 oh         1 8G1      -0.471100
     36 N2           1.8750    -2.8130     1.4940 n1         1 8G1      -0.433000
     37 H1           5.3600     1.8220     1.2200 hc         1 8G1       0.066700
     38 H2           4.3280     2.4780    -0.0350 hc         1 8G1       0.066700
     39 H3           5.6000     1.3410    -1.7620 hc         1 8G1       0.071700
     40 H4           6.8610     1.2640    -0.5300 hc         1 8G1       0.071700
     41 H5           4.5710    -4.2440    -0.2670 ha         1 8G1       0.131000
     42 H6           6.6320    -3.6440    -1.5280 ha         1 8G1       0.124000
     43 H7           7.2890    -1.2470    -1.7950 ha         1 8G1       0.124000
     44 H8          -4.1000     2.3820    -1.4030 h1         1 8G1       0.068700
     45 H9          -4.1880     3.1500     0.1740 h1         1 8G1       0.068700
     46 H10         -5.0040     1.9410     2.1470 ha         1 8G1       0.117000
     47 H11         -6.2830    -0.0080     3.0220 ha         1 8G1       0.135000
     48 H12         -4.4860    -0.1100    -1.6290 ha         1 8G1       0.149000
     49 H13         -1.3150     3.5720     0.8140 h1         1 8G1       0.050700
     50 H14         -2.5820     2.8290     1.8140 h1         1 8G1       0.050700
     51 H15         -0.3410     2.1330     2.5250 hc         1 8G1       0.085700
     52 H16         -1.2920     0.7430     2.0050 hc         1 8G1       0.085700
     53 H17          4.1140     0.3040     2.7900 hn         1 8G1       0.348500
     54 H18          1.3510     0.4030    -3.4900 ho         1 8G1       0.496000
@<TRIPOS>BOND
     1     1     2 2   
     2     1    13 1   
     3     1    27 1   
     4     2     3 1   
     5     2    35 1   
     6     3    33 1   
     7     3    34 2   
     8     4     5 1   
     9     4    32 1   
    10     4    37 1   
    11     4    38 1   
    12     5     6 1   
    13     5    39 1   
    14     5    40 1   
    15     6     7 ar  
    16     6    11 ar  
    17     7     8 ar  
    18     7    32 1   
    19     8     9 ar  
    20     8    12 1   
    21     9    10 ar  
    22     9    41 1   
    23    10    11 ar  
    24    10    42 1   
    25    11    43 1   
    26    12    36 3   
    27    13    19 2   
    28    13    20 1   
    29    14    15 1   
    30    14    20 1   
    31    14    44 1   
    32    14    45 1   
    33    15    16 ar  
    34    15    21 ar  
    35    16    17 ar  
    36    16    46 1   
    37    17    23 ar  
    38    17    47 1   
    39    18    21 ar  
    40    18    22 1   
    41    18    23 ar  
    42    20    25 1   
    43    21    48 1   
    44    23    24 1   
    45    25    26 1   
    46    25    49 1   
    47    25    50 1   
    48    26    27 1   
    49    26    51 1   
    50    26    52 1   
    51    27    28 2   
    52    28    29 1   
    53    28    33 1   
    54    29    30 2   
    55    29    31 1   
    56    31    32 1   
    57    31    53 1   
    58    32    33 1   
    59    35    54 1   
@<TRIPOS>SUBSTRUCTURE
     1 8G1         1 TEMP              0 ****  ****    0 ROOT
