@<TRIPOS>MOLECULE
8G2
   24    24     1     0     0
SMALL
abcg2


@<TRIPOS>ATOM
      1 C4           1.2620     1.2000    -0.3580 ca         1 8G2      -0.094500
      2 C5           2.0770     0.0740    -0.3680 ca         1 8G2      -0.174300
      3 C6           1.5020    -1.1870    -0.2390 ca         1 8G2      -0.094500
      4 C7           0.1320    -1.3190    -0.0990 ca         1 8G2      -0.047500
      5 C8           3.5630     0.2150    -0.4930 c3         1 8G2       0.164900
      6 O1          -2.6700    -1.4710     0.1740 o          1 8G2      -0.455000
      7 O           -2.8230     0.7500     0.0320 os         1 8G2      -0.439100
      8 C           -4.2440     0.6820     0.1590 c3         1 8G2       0.151900
      9 C2          -0.6840    -0.1900    -0.0900 ca         1 8G2      -0.082600
     10 C3          -0.1110     1.0730    -0.2220 ca         1 8G2      -0.047500
     11 N            4.2030     0.2240     0.8540 nz         1 8G2      -0.976000
     12 H7           1.6980     2.1850    -0.4660 ha         1 8G2       0.123500
     13 H8           2.1270    -2.0720    -0.2560 ha         1 8G2       0.123500
     14 H9          -0.3030    -2.3040    -0.0000 ha         1 8G2       0.160500
     15 H11          4.0070    -0.6110    -1.0430 hx         1 8G2       0.107700
     16 H10          3.8450     1.1480    -0.9760 hx         1 8G2       0.107700
     17 H4          -4.5950     1.7090     0.1160 h1         1 8G2       0.061367
     18 H3          -4.6880     0.1120    -0.6570 h1         1 8G2       0.061367
     19 H5          -4.5350     0.2370     1.1100 h1         1 8G2       0.061367
     20 H6          -0.7240     1.9630    -0.2230 ha         1 8G2       0.160500
     21 H2           5.2150     0.3220     0.7800 hn         1 8G2       0.510667
     22 H            3.8680     0.9950     1.4310 hn         1 8G2       0.510667
     23 H1           4.0230    -0.6380     1.3690 hn         1 8G2       0.510667
     24 C1          -2.1520    -0.3880     0.0530 c          1 8G2       0.596700
@<TRIPOS>BOND
     1     1     2 ar  
     2     1    10 ar  
     3     1    12 1   
     4     2     3 ar  
     5     2     5 1   
     6     3     4 ar  
     7     3    13 1   
     8     4     9 ar  
     9     4    14 1   
    10     5    11 1   
    11     5    15 1   
    12     5    16 1   
    13     6    24 2   
    14     7     8 1   
    15     7    24 1   
    16     8    17 1   
    17     8    18 1   
    18     8    19 1   
    19     9    10 ar  
    20     9    24 1   
    21    10    20 1   
    22    11    21 1   
    23    11    22 1   
    24    11    23 1   
@<TRIPOS>SUBSTRUCTURE
     1 8G2         1 TEMP              0 ****  ****    0 ROOT
