@<TRIPOS>MOLECULE
8G2
   24    24     1     0     0
SMALL
No Charge or Current Charge


@<TRIPOS>ATOM
      1 C4           1.3080     1.1820    -0.3480 ca         1 8G2      -0.094500
      2 C5           2.1320     0.0430    -0.3800 ca         1 8G2      -0.174300
      3 C6           1.5510    -1.2330    -0.2760 ca         1 8G2      -0.094500
      4 C7           0.1590    -1.3700    -0.1410 ca         1 8G2      -0.047500
      5 C8           3.6310     0.1900    -0.5210 c3         1 8G2       0.164900
      6 O1          -2.7120    -1.4950     0.1320 o          1 8G2      -0.455000
      7 O           -2.8650     0.7870     0.0560 os         1 8G2      -0.439100
      8 C           -4.2990     0.7360     0.1910 c3         1 8G2       0.151900
      9 C2          -0.6770    -0.2320    -0.1070 ca         1 8G2      -0.082600
     10 C3          -0.0850     1.0490    -0.2130 ca         1 8G2      -0.047500
     11 N            4.1850     0.2860     0.8660 nz         1 8G2      -0.976000
     12 H7           1.7450     2.1760    -0.4290 ha         1 8G2       0.123500
     13 H8           2.1770    -2.1230    -0.3000 ha         1 8G2       0.123500
     14 H9          -0.2700    -2.3680    -0.0620 ha         1 8G2       0.160500
     15 H11          4.0660    -0.6750    -1.0350 hx         1 8G2       0.107700
     16 H10          3.8880     1.0930    -1.0860 hx         1 8G2       0.107700
     17 H4          -4.7190     1.7500     0.1900 h1         1 8G2       0.061367
     18 H3          -4.7530     0.1800    -0.6400 h1         1 8G2       0.061367
     19 H5          -4.5880     0.2510     1.1320 h1         1 8G2       0.061367
     20 H6          -0.6980     1.9480    -0.1920 ha         1 8G2       0.160500
     21 H2           5.2110     0.3900     0.8870 hn         1 8G2       0.510667
     22 H            3.8060     1.0890     1.3890 hn         1 8G2       0.510667
     23 H1           3.9700    -0.5440     1.4360 hn         1 8G2       0.510667
     24 C1          -2.1720    -0.4000     0.0380 c          1 8G2       0.596700
@<TRIPOS>BOND
     1     1     2 ar  
     2     1    10 ar  
     3     1    12 1   
     4     2     3 ar  
     5     2     5 1   
     6     3     4 ar  
     7     3    13 1   
     8     4     9 ar  
     9     4    14 1   
    10     5    11 1   
    11     5    15 1   
    12     5    16 1   
    13     6    24 2   
    14     7     8 1   
    15     7    24 1   
    16     8    17 1   
    17     8    18 1   
    18     8    19 1   
    19     9    10 ar  
    20     9    24 1   
    21    10    20 1   
    22    11    21 1   
    23    11    22 1   
    24    11    23 1   
@<TRIPOS>SUBSTRUCTURE
     1 8G2         1 TEMP              0 ****  ****    0 ROOT
