@<TRIPOS>MOLECULE
8G3
   35    38     1     0     0
SMALL
bcc


@<TRIPOS>ATOM
      1 C9          -4.0330     1.8420     0.0430 cc         1 8G3      -0.336600
      2 C8          -5.3160     1.2720     0.0250 cc         1 8G3       0.391600
      3 C5          -3.1630     0.7690    -0.0120 cd         1 8G3       0.408500
      4 C15          2.4200     0.4050     0.0880 cc         1 8G3       0.541300
      5 C12          4.3120    -0.1550    -0.6100 cd         1 8G3       0.402500
      6 C18          6.6980     0.0540     0.6250 cc         1 8G3      -0.313300
      7 C3          -2.0880    -1.7030    -0.1310 cc         1 8G3      -0.431300
      8 C17          5.5940     0.4920     1.2920 cd         1 8G3       0.008700
      9 C19          6.5350    -0.4830    -0.6690 cc         1 8G3       0.454200
     10 C4          -3.4510    -1.5960    -0.1170 cd         1 8G3       0.271800
     11 C2          -1.3060    -0.5250    -0.0830 cc         1 8G3       0.497600
     12 C10         -6.6190     1.9910     0.0730 c3         1 8G3      -0.108400
     13 C20          0.9500     0.6280     0.1280 c3         1 8G3      -0.073700
     14 C21          0.1880    -0.6700    -0.1100 c3         1 8G3      -0.127700
     15 N7          -5.2820    -0.0520    -0.0360 nd         1 8G3      -0.557100
     16 N11          3.0450    -0.1370    -0.9740 nc         1 8G3      -0.380300
     17 N14          3.2040     0.7320     1.1010 nd         1 8G3      -0.592100
     18 N1          -1.8250     0.6750    -0.0240 nd         1 8G3      -0.682000
     19 N16          5.3800    -0.5890    -1.2790 nd         1 8G3      -0.626000
     20 N6          -3.9770    -0.3510    -0.0590 na         1 8G3       0.034200
     21 N13          4.4140     0.3770     0.6560 na         1 8G3       0.038200
     22 O22         -4.3340    -2.5690    -0.1510 oh         1 8G3      -0.449100
     23 H1          -3.7740     2.8860     0.0870 ha         1 8G3       0.178000
     24 H2           7.6750     0.1200     1.0790 ha         1 8G3       0.164000
     25 H3          -1.6190    -2.6770    -0.1750 ha         1 8G3       0.156000
     26 H5           5.5920     0.9230     2.2830 h4         1 8G3       0.184000
     27 H6           7.4060    -0.8340    -1.2110 h4         1 8G3       0.036100
     28 H7          -6.7020     2.7020    -0.7500 hc         1 8G3       0.051700
     29 H8          -7.4540     1.2950     0.0110 hc         1 8G3       0.051700
     30 H9          -6.7150     2.5580     0.9990 hc         1 8G3       0.051700
     31 H10          0.6800     1.0610     1.0910 hc         1 8G3       0.080700
     32 H11          0.6840     1.3610    -0.6370 hc         1 8G3       0.080700
     33 H12          0.4770    -1.4170     0.6350 hc         1 8G3       0.068700
     34 H13          0.4710    -1.0970    -1.0770 hc         1 8G3       0.068700
     35 H4          -3.8920    -3.4280    -0.1810 ho         1 8G3       0.454000
@<TRIPOS>BOND
     1     1     2 1   
     2     1     3 2   
     3     1    23 1   
     4     2    12 1   
     5     2    15 2   
     6     3    18 1   
     7     3    20 1   
     8     4    13 1   
     9     4    16 1   
    10     4    17 2   
    11     5    16 2   
    12     5    19 1   
    13     5    21 1   
    14     6     8 2   
    15     6     9 1   
    16     6    24 1   
    17     7    10 2   
    18     7    11 1   
    19     7    25 1   
    20     8    21 1   
    21     8    26 1   
    22     9    19 2   
    23     9    27 1   
    24    10    20 1   
    25    10    22 1   
    26    11    14 1   
    27    11    18 2   
    28    12    28 1   
    29    12    29 1   
    30    12    30 1   
    31    13    14 1   
    32    13    31 1   
    33    13    32 1   
    34    14    33 1   
    35    14    34 1   
    36    15    20 1   
    37    17    21 1   
    38    22    35 1   
@<TRIPOS>SUBSTRUCTURE
     1 8G3         1 TEMP              0 ****  ****    0 ROOT
