@<TRIPOS>MOLECULE
8G3
   35    38     1     0     0
SMALL
No Charge or Current Charge


@<TRIPOS>ATOM
      1 C9          -4.2540     1.5440     0.9150 cc         1 8G3      -0.386600
      2 C8          -5.4610     1.1200     0.3040 cc         1 8G3       0.391600
      3 C5          -3.3170     0.6700     0.4990 cd         1 8G3       0.408500
      4 C15          2.4780     0.1650    -0.2940 cc         1 8G3       0.541300
      5 C12          4.3710    -0.7090    -0.3310 cd         1 8G3       0.402500
      6 C18          6.6380     0.2210     0.6270 cc         1 8G3      -0.230000
      7 C3          -1.9370    -1.2550    -0.5910 cc         1 8G3      -0.348000
      8 C17          5.5470     1.0610     0.8170 cd         1 8G3      -0.024000
      9 C19          6.5280    -1.0560    -0.0430 cc         1 8G3       0.388900
     10 C4          -3.2820    -1.2500    -0.9180 cd         1 8G3       0.221100
     11 C2          -1.3450    -0.2670     0.2900 cc         1 8G3       0.432300
     12 C10         -6.7550     1.8460     0.5220 c3         1 8G3      -0.108400
     13 C20          0.9990     0.2790    -0.5460 c3         1 8G3      -0.073700
     14 C21          0.1320    -0.3870     0.5520 c3         1 8G3      -0.127700
     15 N7          -5.3490     0.0410    -0.4680 nd         1 8G3      -0.557100
     16 N11          3.1480    -0.9590    -0.7190 nc         1 8G3      -0.380300
     17 N14          3.1680     1.1170     0.3350 nd         1 8G3      -0.592100
     18 N1          -1.9970     0.7390     0.8740 nd         1 8G3      -0.682000
     19 N16          5.4130    -1.5870    -0.5510 nd         1 8G3      -0.626000
     20 N6          -3.9910    -0.2080    -0.3170 na         1 8G3       0.084900
     21 N13          4.3820     0.5160     0.2910 na         1 8G3       0.088900
     22 O22         -3.8840    -2.1440    -1.7320 oh         1 8G3      -0.488100
     23 H1          -4.1260     2.3930     1.5740 ha         1 8G3       0.228000
     24 H2           7.6180     0.5150     0.9860 ha         1 8G3       0.146000
     25 H3          -1.2840    -2.0170    -1.0020 ha         1 8G3       0.138000
     26 H5           5.5240     2.0300     1.3030 h4         1 8G3       0.166000
     27 H6           7.3980    -1.6860    -0.1740 h4         1 8G3       0.036100
     28 H7          -6.6780     2.8830     0.1770 hc         1 8G3       0.051700
     29 H8          -7.5770     1.3670    -0.0230 hc         1 8G3       0.051700
     30 H9          -7.0160     1.8590     1.5860 hc         1 8G3       0.051700
     31 H10          0.7280     1.3390    -0.6250 hc         1 8G3       0.080700
     32 H11          0.7630    -0.1690    -1.5190 hc         1 8G3       0.080700
     33 H12          0.3760     0.0640     1.5220 hc         1 8G3       0.068700
     34 H13          0.4050    -1.4460     0.6370 hc         1 8G3       0.068700
     35 H4          -3.1890    -2.7700    -2.0260 ho         1 8G3       0.493000
@<TRIPOS>BOND
     1     1     2 1   
     2     1     3 2   
     3     1    23 1   
     4     2    12 1   
     5     2    15 2   
     6     3    18 1   
     7     3    20 1   
     8     4    13 1   
     9     4    16 1   
    10     4    17 2   
    11     5    16 2   
    12     5    19 1   
    13     5    21 1   
    14     6     8 2   
    15     6     9 1   
    16     6    24 1   
    17     7    10 2   
    18     7    11 1   
    19     7    25 1   
    20     8    21 1   
    21     8    26 1   
    22     9    19 2   
    23     9    27 1   
    24    10    20 1   
    25    10    22 1   
    26    11    14 1   
    27    11    18 2   
    28    12    28 1   
    29    12    29 1   
    30    12    30 1   
    31    13    14 1   
    32    13    31 1   
    33    13    32 1   
    34    14    33 1   
    35    14    34 1   
    36    15    20 1   
    37    17    21 1   
    38    22    35 1   
@<TRIPOS>SUBSTRUCTURE
     1 8G3         1 TEMP              0 ****  ****    0 ROOT
