@<TRIPOS>MOLECULE
8G4
   64    70     1     0     0
SMALL
abcg2


@<TRIPOS>ATOM
      1 F            7.5130     2.9890    -1.3680 f          1 8G4      -0.161000
      2 CL           8.2340     2.7110     1.4320 cl         1 8G4      -0.170000
      3 C1           2.8360    -2.1670     0.2290 c          1 8G4       0.590200
      4 N1          -1.4100    -1.7980     0.0560 n          1 8G4      -0.256000
      5 O1          -1.5420    -4.0020    -0.5670 o          1 8G4      -0.568000
      6 C2           1.3480    -2.0500     0.2010 cc         1 8G4      -0.185200
      7 N2          -2.7800    -0.0690     0.4820 n          1 8G4      -0.421800
      8 O2          -1.2480     1.5130     1.0910 o          1 8G4      -0.526000
      9 C3           0.7160    -0.8140     0.5430 cc         1 8G4      -0.017200
     10 N3          -5.3100     2.5010    -0.4500 n          1 8G4      -0.401400
     11 C4           1.6020     0.3130     0.9720 c6         1 8G4      -0.049200
     12 C5          -0.6300    -0.7350     0.4500 cd         1 8G4      -0.092600
     13 C6          -0.8950    -3.0110    -0.2430 c          1 8G4       0.512200
     14 C7           0.5690    -3.1090    -0.1700 cd         1 8G4       0.106900
     15 C8          -2.8550    -1.4590     0.0460 c5         1 8G4       0.332800
     16 C10         -3.9300     0.7910     0.6320 c3         1 8G4       0.094000
     17 C11         -4.0410     1.8160    -0.5000 c3         1 8G4       0.088000
     18 C12         -6.4950     1.9620    -0.9130 c          1 8G4       0.552700
     19 C25          6.8920     1.9670    -0.7750 ca         1 8G4       0.183000
     20 C24          6.0100     1.1870    -1.4990 ca         1 8G4      -0.147000
     21 C23          5.3700     0.1320    -0.8710 ca         1 8G4      -0.062000
     22 C26          7.1380     1.7080     0.5600 ca         1 8G4       0.065000
     23 C27          6.4900     0.6510     1.1840 ca         1 8G4      -0.076000
     24 C22          5.6040    -0.1480     0.4730 ca         1 8G4      -0.116300
     25 C21          4.9170    -1.3070     1.1510 c3         1 8G4       0.146300
     26 N            3.4780    -1.2560     0.9920 n          1 8G4      -0.414800
     27 O5           3.4200    -3.0310    -0.4080 o          1 8G4      -0.539000
     28 O            1.0300    -4.3080    -0.4770 oh         1 8G4      -0.472100
     29 C19         -3.6270    -2.3840     0.9620 cx         1 8G4      -0.166700
     30 C20         -5.1350    -2.3560     0.9350 cx         1 8G4      -0.119400
     31 C18         -4.3960    -3.3640     0.1270 cx         1 8G4      -0.083700
     32 C17         -4.2130    -3.0060    -1.3360 c5         1 8G4      -0.050400
     33 C16         -3.5250    -1.6320    -1.3350 c5         1 8G4      -0.100400
     34 C9          -1.5350     0.3880     0.7230 c          1 8G4       0.583200
     35 C            2.7730    -0.2400     1.7560 c6         1 8G4       0.107000
     36 C15         -5.5280     3.7600     0.0790 c          1 8G4       0.552700
     37 O3          -4.6890     4.4710     0.5670 o          1 8G4      -0.473000
     38 C14         -6.9850     4.0370    -0.0850 cc         1 8G4      -0.231700
     39 C13         -7.5510     2.9870    -0.6670 cd         1 8G4      -0.231700
     40 O4          -6.6160     0.8720    -1.4110 o          1 8G4      -0.473000
     41 H1           1.9760     0.8430     0.0900 hc         1 8G4       0.082700
     42 H2           1.0660     1.0360     1.5790 hc         1 8G4       0.082700
     43 H3          -4.8210     0.1740     0.6680 h1         1 8G4       0.068700
     44 H4          -3.8700     1.3050     1.5920 h1         1 8G4       0.068700
     45 H5          -3.9440     1.3350    -1.4730 h1         1 8G4       0.078200
     46 H6          -3.2500     2.5590    -0.4250 h1         1 8G4       0.078200
     47 H7           5.8320     1.4070    -2.5430 ha         1 8G4       0.138000
     48 H8           4.6840    -0.4780    -1.4450 ha         1 8G4       0.134000
     49 H9           6.6810     0.4550     2.2320 ha         1 8G4       0.129000
     50 H10          5.2830    -2.2480     0.7450 h1         1 8G4       0.070700
     51 H11          5.1540    -1.3060     2.2180 h1         1 8G4       0.070700
     52 H12          0.2550    -4.8650    -0.6770 ho         1 8G4       0.498000
     53 H13         -3.1500    -2.6710     1.8920 hc         1 8G4       0.103700
     54 H14         -5.6120    -2.6840     1.8480 hc         1 8G4       0.078700
     55 H15         -5.6850    -1.5780     0.4180 hc         1 8G4       0.078700
     56 H16         -4.4410    -4.4070     0.4090 hc         1 8G4       0.101700
     57 H17         -3.5980    -3.7500    -1.8330 hc         1 8G4       0.065700
     58 H18         -5.1670    -2.9630    -1.8650 hc         1 8G4       0.065700
     59 H19         -4.2700    -0.8440    -1.4520 hc         1 8G4       0.067700
     60 H20         -2.8080    -1.5030    -2.1450 hc         1 8G4       0.067700
     61 H21          3.4740     0.5670     1.9680 h1         1 8G4       0.052700
     62 H22          2.4420    -0.6460     2.7160 h1         1 8G4       0.052700
     63 H23         -7.4420     4.9600     0.2380 ha         1 8G4       0.228500
     64 H24         -8.5850     2.8380    -0.9380 ha         1 8G4       0.228500
@<TRIPOS>BOND
     1     1    19 1   
     2     2    22 1   
     3     3     6 1   
     4     3    26 1   
     5     3    27 2   
     6     4    12 1   
     7     4    13 1   
     8     4    15 1   
     9     5    13 2   
    10     6     9 1   
    11     6    14 2   
    12     7    15 1   
    13     7    16 1   
    14     7    34 1   
    15     8    34 2   
    16     9    11 1   
    17     9    12 2   
    18    10    17 1   
    19    10    18 1   
    20    10    36 1   
    21    11    35 1   
    22    11    41 1   
    23    11    42 1   
    24    12    34 1   
    25    13    14 1   
    26    14    28 1   
    27    15    29 1   
    28    15    33 1   
    29    16    17 1   
    30    16    43 1   
    31    16    44 1   
    32    17    45 1   
    33    17    46 1   
    34    18    39 1   
    35    18    40 2   
    36    19    20 ar  
    37    19    22 ar  
    38    20    21 ar  
    39    20    47 1   
    40    21    24 ar  
    41    21    48 1   
    42    22    23 ar  
    43    23    24 ar  
    44    23    49 1   
    45    24    25 1   
    46    25    26 1   
    47    25    50 1   
    48    25    51 1   
    49    26    35 1   
    50    28    52 1   
    51    29    30 1   
    52    29    31 1   
    53    29    53 1   
    54    30    31 1   
    55    30    54 1   
    56    30    55 1   
    57    31    32 1   
    58    31    56 1   
    59    32    33 1   
    60    32    57 1   
    61    32    58 1   
    62    33    59 1   
    63    33    60 1   
    64    35    61 1   
    65    35    62 1   
    66    36    37 2   
    67    36    38 1   
    68    38    39 2   
    69    38    63 1   
    70    39    64 1   
@<TRIPOS>SUBSTRUCTURE
     1 8G4         1 TEMP              0 ****  ****    0 ROOT
