@<TRIPOS>MOLECULE
8G4
   64    70     1     0     0
SMALL
No Charge or Current Charge


@<TRIPOS>ATOM
      1 F            7.3870     1.7810    -2.6920 f          1 8G4      -0.161000
      2 Cl           6.3500     3.6350    -0.5500 cl         1 8G4      -0.170000
      3 C1           2.9370    -2.1410     0.8540 c          1 8G4       0.590200
      4 N1          -1.2940    -1.7780    -0.0180 n          1 8G4      -0.256000
      5 O1          -1.3650    -4.0530    -0.5240 o          1 8G4      -0.568000
      6 C2           1.4580    -2.0310     0.6060 cc         1 8G4      -0.185200
      7 N2          -2.8000    -0.0260     0.3530 n          1 8G4      -0.421800
      8 O2          -1.2980     1.5450     1.1980 o          1 8G4      -0.526000
      9 C3           0.7490    -0.7740     0.8220 cc         1 8G4      -0.017200
     10 N3          -5.7390     2.4470     0.1300 n          1 8G4      -0.401400
     11 C4           1.5450     0.4080     1.3430 c6         1 8G4      -0.049200
     12 C5          -0.6090    -0.7110     0.5160 cd         1 8G4      -0.092600
     13 C6          -0.7420    -3.0630    -0.1570 c          1 8G4       0.512200
     14 C7           0.7230    -3.1270     0.1510 cd         1 8G4       0.106900
     15 C8          -2.6950    -1.3760    -0.2680 c5         1 8G4       0.332800
     16 C10         -4.0210     0.7240     0.7470 c3         1 8G4       0.094000
     17 C11         -4.5800     1.6610    -0.3410 c3         1 8G4       0.088000
     18 C12         -7.0540     2.0140    -0.0200 c          1 8G4       0.552700
     19 C25          6.8170     1.1410    -1.6440 ca         1 8G4       0.183000
     20 C24          6.7570    -0.2620    -1.6440 ca         1 8G4      -0.147000
     21 C23          6.1660    -0.9390    -0.5620 ca         1 8G4      -0.062000
     22 C26          6.2870     1.8720    -0.5640 ca         1 8G4       0.065000
     23 C27          5.6980     1.1940     0.5170 ca         1 8G4      -0.076000
     24 C22          5.6360    -0.2140     0.5240 ca         1 8G4      -0.116300
     25 C21          4.9830    -0.9450     1.6880 c3         1 8G4       0.146300
     26 N            3.5150    -1.0480     1.5320 n          1 8G4      -0.414800
     27 O5           3.6330    -3.0840     0.4980 o          1 8G4      -0.539000
     28 O            1.2310    -4.3750    -0.0430 oh         1 8G4      -0.472100
     29 C19         -3.7360    -2.3700     0.2750 cx         1 8G4      -0.166700
     30 C20         -5.1720    -2.2140    -0.2100 cx         1 8G4      -0.119400
     31 C18         -4.2300    -3.1630    -0.9100 cx         1 8G4      -0.083700
     32 C17         -3.5890    -2.6130    -2.2090 c5         1 8G4      -0.050400
     33 C16         -2.9190    -1.2520    -1.8090 c5         1 8G4      -0.100400
     34 C9          -1.5300     0.4360     0.7380 c          1 8G4       0.583200
     35 C            2.6770    -0.0770     2.2460 c6         1 8G4       0.107000
     36 C15         -5.6160     3.7230     0.6760 c          1 8G4       0.552700
     37 O3          -4.5850     4.3390     0.8930 o          1 8G4      -0.473000
     38 C14         -6.9990     4.1310     0.9210 cc         1 8G4      -0.231700
     39 C13         -7.8480     3.1250     0.5110 cd         1 8G4      -0.231700
     40 O4          -7.4370     0.9520    -0.4850 o          1 8G4      -0.473000
     41 H1           1.9600     0.9910     0.5100 hc         1 8G4       0.082700
     42 H2           0.9440     1.0990     1.9410 hc         1 8G4       0.082700
     43 H3          -4.8040     0.0250     1.0610 h1         1 8G4       0.068700
     44 H4          -3.7900     1.3310     1.6330 h1         1 8G4       0.068700
     45 H5          -4.8890     1.0730    -1.2130 h1         1 8G4       0.078200
     46 H6          -3.7860     2.3440    -0.6670 h1         1 8G4       0.078200
     47 H7           7.1650    -0.8210    -2.4820 ha         1 8G4       0.138000
     48 H8           6.1160    -2.0270    -0.5700 ha         1 8G4       0.134000
     49 H9           5.2870     1.7640     1.3470 ha         1 8G4       0.129000
     50 H10          5.4210    -1.9470     1.7900 h1         1 8G4       0.070700
     51 H11          5.2130    -0.4130     2.6210 h1         1 8G4       0.070700
     52 H12          0.4750    -4.9280    -0.3490 ho         1 8G4       0.498000
     53 H13         -3.5680    -2.8760     1.2230 hc         1 8G4       0.103700
     54 H14         -5.9570    -2.6490     0.4030 hc         1 8G4       0.078700
     55 H15         -5.4730    -1.3120    -0.7380 hc         1 8G4       0.078700
     56 H16         -4.4030    -4.2310    -0.7960 hc         1 8G4       0.101700
     57 H17         -2.8410    -3.3130    -2.5980 hc         1 8G4       0.065700
     58 H18         -4.3270    -2.4820    -3.0080 hc         1 8G4       0.065700
     59 H19         -3.5910    -0.4270    -2.0570 hc         1 8G4       0.067700
     60 H20         -1.9920    -1.0630    -2.3620 hc         1 8G4       0.067700
     61 H21          3.2780     0.7830     2.5740 h1         1 8G4       0.052700
     62 H22          2.2570    -0.5560     3.1430 h1         1 8G4       0.052700
     63 H23         -7.2470     5.0950     1.3540 ha         1 8G4       0.228500
     64 H24         -8.9320     3.0900     0.5380 ha         1 8G4       0.228500
@<TRIPOS>BOND
     1     1    19 1   
     2     2    22 1   
     3     3     6 1   
     4     3    26 1   
     5     3    27 2   
     6     4    12 1   
     7     4    13 1   
     8     4    15 1   
     9     5    13 2   
    10     6     9 1   
    11     6    14 2   
    12     7    15 1   
    13     7    16 1   
    14     7    34 1   
    15     8    34 2   
    16     9    11 1   
    17     9    12 2   
    18    10    17 1   
    19    10    18 1   
    20    10    36 1   
    21    11    35 1   
    22    11    41 1   
    23    11    42 1   
    24    12    34 1   
    25    13    14 1   
    26    14    28 1   
    27    15    29 1   
    28    15    33 1   
    29    16    17 1   
    30    16    43 1   
    31    16    44 1   
    32    17    45 1   
    33    17    46 1   
    34    18    39 1   
    35    18    40 2   
    36    19    20 ar  
    37    19    22 ar  
    38    20    21 ar  
    39    20    47 1   
    40    21    24 ar  
    41    21    48 1   
    42    22    23 ar  
    43    23    24 ar  
    44    23    49 1   
    45    24    25 1   
    46    25    26 1   
    47    25    50 1   
    48    25    51 1   
    49    26    35 1   
    50    28    52 1   
    51    29    30 1   
    52    29    31 1   
    53    29    53 1   
    54    30    31 1   
    55    30    54 1   
    56    30    55 1   
    57    31    32 1   
    58    31    56 1   
    59    32    33 1   
    60    32    57 1   
    61    32    58 1   
    62    33    59 1   
    63    33    60 1   
    64    35    61 1   
    65    35    62 1   
    66    36    37 2   
    67    36    38 1   
    68    38    39 2   
    69    38    63 1   
    70    39    64 1   
@<TRIPOS>SUBSTRUCTURE
     1 8G4         1 TEMP              0 ****  ****    0 ROOT
