@<TRIPOS>MOLECULE
8G5
   33    35     1     0     0
SMALL
No Charge or Current Charge


@<TRIPOS>ATOM
      1 C4          -0.7430    -2.1740     0.1090 c5         1 8G5      -0.197400
      2 C5          -2.2590    -1.9740     0.0610 c          1 8G5       0.657100
      3 C6          -1.2520     0.1170    -0.2250 c5         1 8G5       0.198000
      4 N1           3.8530     1.1120    -1.8900 nv         1 8G5      -1.038900
      5 C7          -0.9460     0.7460     1.1810 c6         1 8G5      -0.075400
      6 C8          -2.0300     1.7610     1.6320 c6         1 8G5      -0.070400
      7 C9          -2.2070     2.8880     0.5900 c6         1 8G5      -0.073400
      8 C10         -2.5240     2.3030    -0.8050 c6         1 8G5      -0.070400
      9 C11         -1.4410     1.2830    -1.2440 c6         1 8G5      -0.075400
     10 O           -3.0480    -2.7990    -0.3760 o          1 8G5      -0.498000
     11 O1          -2.4860    -0.6380    -0.1440 os         1 8G5      -0.430100
     12 C3          -0.2300    -0.9620    -0.7170 c5         1 8G5      -0.119000
     13 C1           1.2250    -0.5780    -0.5010 cc         1 8G5       0.340300
     14 N            1.8620     0.1750    -1.4530 nc         1 8G5      -0.734000
     15 C2           3.0920     0.3750    -1.0750 cd         1 8G5       0.699300
     16 S            3.6100    -0.3050     0.4560 ss         1 8G5      -0.099400
     17 C            1.9820    -0.9490     0.5900 cd         1 8G5      -0.273000
     18 H4          -0.4370    -2.0810     1.1550 hc         1 8G5       0.083700
     19 H5          -0.4520    -3.1510    -0.2890 hc         1 8G5       0.083700
     20 H3           3.3400     1.6350    -2.5870 hn         1 8G5       0.480000
     21 H2           4.6610     1.5690    -1.4830 hn         1 8G5       0.480000
     22 H7          -0.8520    -0.0310     1.9500 hc         1 8G5       0.054950
     23 H6           0.0250     1.2590     1.1510 hc         1 8G5       0.054950
     24 H8          -2.9870     1.2430     1.7870 hc         1 8G5       0.047200
     25 H9          -1.7520     2.1940     2.6030 hc         1 8G5       0.047200
     26 H11         -3.0140     3.5650     0.9040 hc         1 8G5       0.037700
     27 H10         -1.2920     3.4940     0.5390 hc         1 8G5       0.037700
     28 H13         -3.5100     1.8190    -0.7900 hc         1 8G5       0.047200
     29 H12         -2.5890     3.1160    -1.5420 hc         1 8G5       0.047200
     30 H14         -0.4860     1.8080    -1.3820 hc         1 8G5       0.054950
     31 H15         -1.7070     0.8740    -2.2280 hc         1 8G5       0.054950
     32 H           -0.3890    -1.1610    -1.7830 hc         1 8G5       0.086700
     33 H1           1.6950    -1.5410     1.4480 h4         1 8G5       0.163000
@<TRIPOS>BOND
     1     1     2 1   
     2     1    12 1   
     3     1    18 1   
     4     1    19 1   
     5     2    10 2   
     6     2    11 1   
     7     3     5 1   
     8     3     9 1   
     9     3    11 1   
    10     3    12 1   
    11     4    15 1   
    12     4    20 1   
    13     4    21 1   
    14     5     6 1   
    15     5    22 1   
    16     5    23 1   
    17     6     7 1   
    18     6    24 1   
    19     6    25 1   
    20     7     8 1   
    21     7    26 1   
    22     7    27 1   
    23     8     9 1   
    24     8    28 1   
    25     8    29 1   
    26     9    30 1   
    27     9    31 1   
    28    12    13 1   
    29    12    32 1   
    30    13    14 1   
    31    13    17 2   
    32    14    15 2   
    33    15    16 1   
    34    16    17 1   
    35    17    33 1   
@<TRIPOS>SUBSTRUCTURE
     1 8G5         1 TEMP              0 ****  ****    0 ROOT
