@<TRIPOS>MOLECULE
8G5
   33    35     1     0     0
SMALL
abcg2


@<TRIPOS>ATOM
      1 C4          -0.7930    -2.1980     0.0470 c5         1 8G5      -0.197400
      2 C5          -2.2630    -1.9080     0.1770 c          1 8G5       0.657100
      3 C6          -1.2590     0.1300    -0.2410 c5         1 8G5       0.198000
      4 N1           3.7690     1.4580    -1.5340 nv         1 8G5      -1.038900
      5 C7          -0.8760     0.7920     1.0790 c6         1 8G5      -0.075400
      6 C8          -1.8990     1.8330     1.5220 c6         1 8G5      -0.070400
      7 C9          -2.1150     2.8830     0.4380 c6         1 8G5      -0.073400
      8 C10         -2.5280     2.2350    -0.8780 c6         1 8G5      -0.070400
      9 C11         -1.5280     1.1690    -1.3170 c6         1 8G5      -0.075400
     10 O           -3.1550    -2.6730     0.4310 o          1 8G5      -0.498000
     11 O1          -2.4900    -0.6150    -0.0300 os         1 8G5      -0.430100
     12 C3          -0.2680    -0.9750    -0.6860 c5         1 8G5      -0.119000
     13 C1           1.1730    -0.6480    -0.4800 cc         1 8G5       0.340300
     14 N            1.7140     0.3750    -1.2180 nc         1 8G5      -0.734000
     15 C2           2.9660     0.5540    -0.9280 cd         1 8G5       0.699300
     16 S            3.5880    -0.5400     0.2770 ss         1 8G5      -0.099400
     17 C            2.0200    -1.2670     0.3750 cd         1 8G5      -0.273000
     18 H4          -0.3790    -2.3040     1.0540 hc         1 8G5       0.083700
     19 H5          -0.6200    -3.1390    -0.4730 hc         1 8G5       0.083700
     20 H3           3.3000     2.1980    -2.0310 hn         1 8G5       0.480000
     21 H2           4.6120     1.7460    -1.0650 hn         1 8G5       0.480000
     22 H7          -0.7320     0.0360     1.8580 hc         1 8G5       0.054950
     23 H6           0.0940     1.2790     0.9450 hc         1 8G5       0.054950
     24 H8          -2.8500     1.3480     1.7630 hc         1 8G5       0.047200
     25 H9          -1.5530     2.3040     2.4450 hc         1 8G5       0.047200
     26 H11         -2.8690     3.6060     0.7560 hc         1 8G5       0.037700
     27 H10         -1.1870     3.4460     0.2920 hc         1 8G5       0.037700
     28 H13         -3.5230     1.7910    -0.7730 hc         1 8G5       0.047200
     29 H12         -2.6130     2.9900    -1.6630 hc         1 8G5       0.047200
     30 H14         -0.5700     1.6340    -1.5640 hc         1 8G5       0.054950
     31 H15         -1.8730     0.6690    -2.2270 hc         1 8G5       0.054950
     32 H           -0.4190    -1.1300    -1.7610 hc         1 8G5       0.086700
     33 H1           1.8390    -2.0880     1.0500 h4         1 8G5       0.163000
@<TRIPOS>BOND
     1     1     2 1   
     2     1    12 1   
     3     1    18 1   
     4     1    19 1   
     5     2    10 2   
     6     2    11 1   
     7     3     5 1   
     8     3     9 1   
     9     3    11 1   
    10     3    12 1   
    11     4    15 1   
    12     4    20 1   
    13     4    21 1   
    14     5     6 1   
    15     5    22 1   
    16     5    23 1   
    17     6     7 1   
    18     6    24 1   
    19     6    25 1   
    20     7     8 1   
    21     7    26 1   
    22     7    27 1   
    23     8     9 1   
    24     8    28 1   
    25     8    29 1   
    26     9    30 1   
    27     9    31 1   
    28    12    13 1   
    29    12    32 1   
    30    13    14 1   
    31    13    17 2   
    32    14    15 2   
    33    15    16 1   
    34    16    17 1   
    35    17    33 1   
@<TRIPOS>SUBSTRUCTURE
     1 8G5         1 TEMP              0 ****  ****    0 ROOT
