@<TRIPOS>MOLECULE
8G6
   27    29     1     0     0
SMALL
abcg2


@<TRIPOS>ATOM
      1 C10         -1.5080     1.1820    -0.8590 ca         1 8G6      -0.061000
      2 C11         -1.0570    -0.5030     0.7950 ca         1 8G6      -0.061000
      3 C14         -2.8480     0.8320    -0.8650 ca         1 8G6      -0.111000
      4 C15         -2.3960    -0.8530     0.8050 ca         1 8G6      -0.111000
      5 C7           3.8830    -0.7140     0.0030 cc         1 8G6      -0.372600
      6 C5          -0.5990     0.5210    -0.0340 ca         1 8G6      -0.060000
      7 C16         -3.2800    -0.1850    -0.0290 ca         1 8G6       0.137000
      8 C9           2.9290    -1.7360    -0.0330 cc         1 8G6       0.389600
      9 C3           3.1490     0.4580     0.0150 cd         1 8G6       0.370500
     10 C6           1.1690     2.2840    -0.0210 cc         1 8G6      -0.224000
     11 C12          2.5370     2.6270     0.0020 cc         1 8G6       0.371900
     12 C2           0.8010     0.9660    -0.0230 cd         1 8G6       0.049000
     13 N4           1.6870    -1.2640    -0.0440 nd         1 8G6      -0.581100
     14 N8           3.5050     1.7510     0.0240 nd         1 8G6      -0.636000
     15 N1           1.8160     0.0610    -0.0070 na         1 8G6       0.119900
     16 CL          -4.9510    -0.6310    -0.0260 cl         1 8G6      -0.194000
     17 H1          -1.1690     1.9710    -1.5190 ha         1 8G6       0.130000
     18 H2          -0.3770    -1.0260     1.4510 ha         1 8G6       0.130000
     19 H3          -3.5400     1.3430    -1.5190 ha         1 8G6       0.134000
     20 H4          -2.7450    -1.6410     1.4590 ha         1 8G6       0.134000
     21 H5           4.9560    -0.8070     0.0090 ha         1 8G6       0.228000
     22 H6           0.4160     3.0570    -0.0070 ha         1 8G6       0.141000
     23 H7           2.8180     3.6730     0.0100 h4         1 8G6       0.030100
     24 H8           3.5450    -3.5460     0.9190 hc         1 8G6       0.052033
     25 H9           2.2610    -3.7520    -0.2720 hc         1 8G6       0.052033
     26 H10          3.9250    -3.4660    -0.7930 hc         1 8G6       0.052033
     27 C13          3.1750    -3.2040    -0.0490 c3         1 8G6      -0.108400
@<TRIPOS>BOND
     1     1     3 ar  
     2     1     6 ar  
     3     1    17 1   
     4     2     4 ar  
     5     2     6 ar  
     6     2    18 1   
     7     3     7 ar  
     8     3    19 1   
     9     4     7 ar  
    10     4    20 1   
    11     5     8 1   
    12     5     9 2   
    13     5    21 1   
    14     6    12 1   
    15     7    16 1   
    16     8    13 2   
    17     8    27 1   
    18     9    14 1   
    19     9    15 1   
    20    10    11 1   
    21    10    12 2   
    22    10    22 1   
    23    11    14 2   
    24    11    23 1   
    25    12    15 1   
    26    13    15 1   
    27    24    27 1   
    28    25    27 1   
    29    26    27 1   
@<TRIPOS>SUBSTRUCTURE
     1 8G6         1 TEMP              0 ****  ****    0 ROOT
