@<TRIPOS>MOLECULE
8G6
   27    29     1     0     0
SMALL
No Charge or Current Charge


@<TRIPOS>ATOM
      1 C10         -1.6460     1.4020    -0.6130 ca         1 8G6      -0.061000
      2 C11         -1.2040    -0.6720     0.5640 ca         1 8G6      -0.061000
      3 C14         -3.0180     1.0940    -0.6390 ca         1 8G6      -0.111000
      4 C15         -2.5770    -0.9760     0.5390 ca         1 8G6      -0.111000
      5 C7           3.8990    -0.6790     0.0660 cc         1 8G6      -0.372600
      6 C5          -0.7070     0.5210    -0.0200 ca         1 8G6      -0.060000
      7 C16         -3.4830    -0.0960    -0.0650 ca         1 8G6       0.137000
      8 C9           2.9940    -1.7640     0.1060 cc         1 8G6       0.389600
      9 C3           3.1290     0.4260     0.0390 cd         1 8G6       0.370500
     10 C6           1.2210     2.1760    -0.1820 cc         1 8G6      -0.224000
     11 C12          2.6250     2.5260    -0.2050 cc         1 8G6       0.371900
     12 C2           0.7450     0.8730     0.0020 cd         1 8G6       0.049000
     13 N4           1.7100    -1.4180     0.1000 nd         1 8G6      -0.581100
     14 N8           3.6530     1.6880    -0.0980 nd         1 8G6      -0.636000
     15 N1           1.8230    -0.0350     0.0960 na         1 8G6       0.119900
     16 Cl          -5.1990    -0.4790    -0.0960 cl         1 8G6      -0.194000
     17 H1          -1.3260     2.3230    -1.0900 ha         1 8G6       0.130000
     18 H2          -0.5460    -1.3610     1.0810 ha         1 8G6       0.130000
     19 H3          -3.7200     1.7780    -1.1090 ha         1 8G6       0.134000
     20 H4          -2.9380    -1.8930     0.9970 ha         1 8G6       0.134000
     21 H5           4.9790    -0.7400     0.0300 ha         1 8G6       0.228000
     22 H6           0.5370     3.0090    -0.2790 ha         1 8G6       0.141000
     23 H7           2.9300     3.5570    -0.3250 h4         1 8G6       0.030100
     24 H8           4.2030    -3.3440     0.9130 hc         1 8G6       0.052033
     25 H9           2.6290    -3.8790     0.2950 hc         1 8G6       0.052033
     26 H10          3.9260    -3.4510    -0.8370 hc         1 8G6       0.052033
     27 C13          3.4620    -3.1880     0.1200 c3         1 8G6      -0.108400
@<TRIPOS>BOND
     1     1     3 ar  
     2     1     6 ar  
     3     1    17 1   
     4     2     4 ar  
     5     2     6 ar  
     6     2    18 1   
     7     3     7 ar  
     8     3    19 1   
     9     4     7 ar  
    10     4    20 1   
    11     5     8 1   
    12     5     9 2   
    13     5    21 1   
    14     6    12 1   
    15     7    16 1   
    16     8    13 2   
    17     8    27 1   
    18     9    14 1   
    19     9    15 1   
    20    10    11 1   
    21    10    12 2   
    22    10    22 1   
    23    11    14 2   
    24    11    23 1   
    25    12    15 1   
    26    13    15 1   
    27    24    27 1   
    28    25    27 1   
    29    26    27 1   
@<TRIPOS>SUBSTRUCTURE
     1 8G6         1 TEMP              0 ****  ****    0 ROOT
