@<TRIPOS>MOLECULE
8G7
   48    50     1     0     0
SMALL
No Charge or Current Charge


@<TRIPOS>ATOM
      1 C1          24.5960     3.2270   -25.9450 cc         1 8G7      -0.302400
      2 C2          23.6490     2.5690   -25.1940 cd         1 8G7       0.241900
      3 C3          22.9430     1.2430   -27.1320 c6         1 8G7       0.197000
      4 C7          24.6310     3.1550   -27.4690 c6         1 8G7       0.057700
      5 C10         25.2420     6.3370   -29.7490 c3         1 8G7      -0.054400
      6 C12         24.0150     0.1100   -27.1070 c3         1 8G7      -0.108100
      7 C13         23.5760     2.6520   -23.7480 ca         1 8G7      -0.182800
      8 C14         24.5440     3.4210   -23.0940 ca         1 8G7       0.518900
      9 C15         23.6220     2.9340   -21.0190 ca         1 8G7       0.401900
     10 C16         22.6190     2.1460   -21.5980 ca         1 8G7      -0.220000
     11 C6          23.3730     2.4370   -28.0150 c6         1 8G7      -0.108400
     12 C4          21.5580     0.6840   -27.6050 c3         1 8G7      -0.071400
     13 C           25.6630     4.0010   -25.2510 c          1 8G7       0.582200
     14 N1          25.5720     4.0870   -23.8400 n          1 8G7      -0.368300
     15 C18         26.5910     4.8870   -23.0990 c3         1 8G7       0.083300
     16 N           24.5710     3.5610   -21.7470 nb         1 8G7      -0.730000
     17 C17         22.5880     1.9950   -22.9900 ca         1 8G7       0.001000
     18 O1          22.7670     1.6950   -25.7770 os         1 8G7      -0.352100
     19 O2          21.4380    -1.7340   -27.1810 oh         1 8G7      -0.665000
     20 C8          24.6840     4.5600   -28.0690 c2         1 8G7      -0.210200
     21 C11         25.8750     3.9490   -30.2490 c3         1 8G7      -0.054400
     22 H1          25.5250     2.5910   -27.7690 hc         1 8G7       0.068700
     23 H2          24.7770     7.0220   -29.0290 hc         1 8G7       0.038200
     24 H3          26.2680     6.6850   -29.9160 hc         1 8G7       0.038200
     25 H4          24.6970     6.4360   -30.6950 hc         1 8G7       0.038200
     26 H5          23.7600    -0.6700   -26.3810 hc         1 8G7       0.052700
     27 H6          24.1100    -0.3650   -28.0910 hc         1 8G7       0.052700
     28 H7          25.0060     0.4830   -26.8260 hc         1 8G7       0.052700
     29 H8          23.6700     3.0670   -19.9390 h4         1 8G7       0.022100
     30 H9          21.8780     1.6600   -20.9690 ha         1 8G7       0.129000
     31 H10         22.5430     3.1560   -28.0600 hc         1 8G7       0.058200
     32 H11         23.5450     2.1080   -29.0480 hc         1 8G7       0.058200
     33 H12         19.8370    -0.4400   -26.9380 h1         1 8G7       0.024200
     34 H13         21.0960    -0.2890   -25.7040 h1         1 8G7       0.024200
     35 H14         20.8390     1.5120   -27.5990 hc         1 8G7       0.061700
     36 H15         21.6210     0.3660   -28.6530 hc         1 8G7       0.061700
     37 H16         26.0900     5.6210   -22.4550 h1         1 8G7       0.057700
     38 H17         27.1980     4.2200   -22.4740 h1         1 8G7       0.057700
     39 H18         27.2610     5.4360   -23.7710 h1         1 8G7       0.057700
     40 H19         21.8160     1.3880   -23.4610 ha         1 8G7       0.132000
     41 H20         20.9750    -2.4140   -26.6430 ho         1 8G7       0.444000
     42 H21         24.2360     5.3360   -27.4470 ha         1 8G7       0.168000
     43 H22         25.8150     2.8990   -29.9450 hc         1 8G7       0.038200
     44 H23         25.3920     4.0210   -31.2310 hc         1 8G7       0.038200
     45 H24         26.9360     4.1900   -30.3840 hc         1 8G7       0.038200
     46 C9          25.2250     4.9020   -29.2550 c2         1 8G7      -0.097400
     47 C5          20.9230    -0.4590   -26.7750 c3         1 8G7       0.167600
     48 O           26.5850     4.5320   -25.8560 o          1 8G7      -0.540000
@<TRIPOS>BOND
     1     1     2 2   
     2     1     4 1   
     3     1    13 1   
     4     2     7 1   
     5     2    18 1   
     6     3     6 1   
     7     3    11 1   
     8     3    12 1   
     9     3    18 1   
    10     4    11 1   
    11     4    20 1   
    12     4    22 1   
    13     5    23 1   
    14     5    24 1   
    15     5    25 1   
    16     5    46 1   
    17     6    26 1   
    18     6    27 1   
    19     6    28 1   
    20     7     8 ar  
    21     7    17 ar  
    22     8    14 1   
    23     8    16 ar  
    24     9    10 ar  
    25     9    16 ar  
    26     9    29 1   
    27    10    17 ar  
    28    10    30 1   
    29    11    31 1   
    30    11    32 1   
    31    12    35 1   
    32    12    36 1   
    33    12    47 1   
    34    13    14 1   
    35    13    48 2   
    36    14    15 1   
    37    15    37 1   
    38    15    38 1   
    39    15    39 1   
    40    17    40 1   
    41    19    41 1   
    42    19    47 1   
    43    20    42 1   
    44    20    46 2   
    45    21    43 1   
    46    21    44 1   
    47    21    45 1   
    48    21    46 1   
    49    33    47 1   
    50    34    47 1   
@<TRIPOS>SUBSTRUCTURE
     1 8G7         1 TEMP              0 ****  ****    0 ROOT
