@<TRIPOS>MOLECULE
8G7
   48    50     1     0     0
SMALL
bcc


@<TRIPOS>ATOM
      1 C1          24.5550     3.1630   -25.9860 cc         1 8G7      -0.302400
      2 C2          23.6340     2.4940   -25.2470 cd         1 8G7       0.241900
      3 C3          22.8710     1.2150   -27.1070 c6         1 8G7       0.173800
      4 C7          24.5560     3.1030   -27.4910 c6         1 8G7       0.057700
      5 C10         25.1150     6.2700   -29.7140 c3         1 8G7      -0.054400
      6 C12         23.9240     0.1150   -27.1110 c3         1 8G7      -0.108100
      7 C13         23.6080     2.6200   -23.8130 ca         1 8G7      -0.248100
      8 C14         24.5700     3.4310   -23.1860 ca         1 8G7       0.584200
      9 C15         23.6990     2.9970   -21.1250 ca         1 8G7       0.467200
     10 C16         22.7130     2.1630   -21.6370 ca         1 8G7      -0.303300
     11 C6          23.2850     2.3930   -27.9780 c6         1 8G7      -0.108400
     12 C4          21.4850     0.7360   -27.5360 c3         1 8G7      -0.071400
     13 C           25.6050     3.9120   -25.3230 c          1 8G7       0.724700
     14 N1          25.5310     4.0560   -23.9450 n          1 8G7      -0.435300
     15 C18         26.5700     4.8620   -23.3200 c3         1 8G7       0.083300
     16 N           24.6010     3.6080   -21.8710 nb         1 8G7      -0.730000
     17 C17         22.6740     1.9750   -23.0040 ca         1 8G7      -0.017000
     18 O1          22.7040     1.6890   -25.7500 os         1 8G7      -0.328900
     19 O2          21.3940    -1.6410   -27.1740 oh         1 8G7      -0.602800
     20 C8          24.5750     4.4730   -28.1140 c2         1 8G7      -0.160200
     21 C11         26.3060     4.0550   -29.8880 c3         1 8G7      -0.054400
     22 H1          25.4330     2.5370   -27.8170 hc         1 8G7       0.068700
     23 H2          24.3740     6.8440   -29.1580 hc         1 8G7       0.038200
     24 H3          26.0590     6.8220   -29.6890 hc         1 8G7       0.038200
     25 H4          24.8030     6.2400   -30.7610 hc         1 8G7       0.038200
     26 H5          23.6690    -0.6890   -26.4240 hc         1 8G7       0.052700
     27 H6          24.0050    -0.3120   -28.1110 hc         1 8G7       0.052700
     28 H7          24.9080     0.4960   -26.8360 hc         1 8G7       0.052700
     29 H8          23.7630     3.1750   -20.0570 h4         1 8G7       0.022100
     30 H9          22.0030     1.6800   -20.9800 ha         1 8G7       0.147000
     31 H10         22.4600     3.1130   -28.0060 hc         1 8G7       0.058200
     32 H11         23.4320     2.0510   -29.0040 hc         1 8G7       0.058200
     33 H12         19.7720    -0.3730   -26.9390 h1         1 8G7       0.024200
     34 H13         20.9870    -0.2490   -25.6780 h1         1 8G7       0.024200
     35 H14         20.8080     1.5930   -27.4790 hc         1 8G7       0.061700
     36 H15         21.5300     0.4600   -28.5930 hc         1 8G7       0.061700
     37 H16         26.3450     4.9760   -22.2670 h1         1 8G7       0.057700
     38 H17         27.5440     4.3870   -23.4240 h1         1 8G7       0.057700
     39 H18         26.6100     5.8450   -23.7830 h1         1 8G7       0.057700
     40 H19         21.9240     1.3340   -23.4460 ha         1 8G7       0.150000
     41 H20         21.0450    -2.3290   -26.6010 ho         1 8G7       0.405000
     42 H21         23.8600     5.1690   -27.6800 ha         1 8G7       0.118000
     43 H22         26.4270     3.0520   -29.4840 hc         1 8G7       0.038200
     44 H23         26.0410     3.9570   -30.9440 hc         1 8G7       0.038200
     45 H24         27.2830     4.5450   -29.8610 hc         1 8G7       0.038200
     46 C9          25.2870     4.8830   -29.1640 c2         1 8G7      -0.097400
     47 C5          20.8540    -0.4050   -26.7550 c3         1 8G7       0.144400
     48 O           26.5410     4.4170   -25.9270 o          1 8G7      -0.615500
@<TRIPOS>BOND
     1     1     2 2   
     2     1     4 1   
     3     1    13 1   
     4     2     7 1   
     5     2    18 1   
     6     3     6 1   
     7     3    11 1   
     8     3    12 1   
     9     3    18 1   
    10     4    11 1   
    11     4    20 1   
    12     4    22 1   
    13     5    23 1   
    14     5    24 1   
    15     5    25 1   
    16     5    46 1   
    17     6    26 1   
    18     6    27 1   
    19     6    28 1   
    20     7     8 ar  
    21     7    17 ar  
    22     8    14 1   
    23     8    16 ar  
    24     9    10 ar  
    25     9    16 ar  
    26     9    29 1   
    27    10    17 ar  
    28    10    30 1   
    29    11    31 1   
    30    11    32 1   
    31    12    35 1   
    32    12    36 1   
    33    12    47 1   
    34    13    14 1   
    35    13    48 2   
    36    14    15 1   
    37    15    37 1   
    38    15    38 1   
    39    15    39 1   
    40    17    40 1   
    41    19    41 1   
    42    19    47 1   
    43    20    42 1   
    44    20    46 2   
    45    21    43 1   
    46    21    44 1   
    47    21    45 1   
    48    21    46 1   
    49    33    47 1   
    50    34    47 1   
@<TRIPOS>SUBSTRUCTURE
     1 8G7         1 TEMP              0 ****  ****    0 ROOT
