@<TRIPOS>MOLECULE
8G8
   16    17     1     0     0
SMALL
abcg2


@<TRIPOS>ATOM
      1 C4           1.0080     1.1580     0.0580 ca         1 8G8      -0.032600
      2 C5           0.7920    -0.2280     0.0110 ca         1 8G8       0.099500
      3 C6          -1.3750     0.0450    -0.0650 ca         1 8G8       0.228000
      4 N1           2.3510     1.4240     0.1160 nc         1 8G8      -0.539100
      5 C7          -0.1310     1.9430     0.0370 ca         1 8G8       0.188900
      6 N2          -0.3870    -0.8200    -0.0520 nb         1 8G8      -0.159000
      7 N3          -1.3270     1.3650    -0.0250 nb         1 8G8      -0.182000
      8 CL          -2.9640    -0.6380    -0.1430 cl         1 8G8      -0.122000
      9 C3           2.9060     0.2470     0.1030 cd         1 8G8       0.427700
     10 N            2.0220    -0.7930     0.0420 na         1 8G8      -0.278300
     11 C1           2.3300    -2.2060     0.0020 c3         1 8G8       0.071900
     12 H8          -0.0990     3.0250     0.0680 h4         1 8G8       0.046100
     13 H7           3.9700     0.0640     0.1390 h5         1 8G8       0.070800
     14 H3           2.0030    -2.6400    -0.9400 h1         1 8G8       0.060700
     15 H1           3.4050    -2.3310     0.0950 h1         1 8G8       0.060700
     16 H2           1.8420    -2.7210     0.8250 h1         1 8G8       0.060700
@<TRIPOS>BOND
     1     1     2 ar  
     2     1     4 1   
     3     1     5 ar  
     4     2     6 ar  
     5     2    10 1   
     6     3     6 ar  
     7     3     7 ar  
     8     3     8 1   
     9     4     9 2   
    10     5     7 ar  
    11     5    12 1   
    12     9    10 1   
    13     9    13 1   
    14    10    11 1   
    15    11    14 1   
    16    11    15 1   
    17    11    16 1   
@<TRIPOS>SUBSTRUCTURE
     1 8G8         1 TEMP              0 ****  ****    0 ROOT
