@<TRIPOS>MOLECULE
8G8
   16    17     1     0     0
SMALL
No Charge or Current Charge


@<TRIPOS>ATOM
      1 C4           0.9970     1.1150     0.0590 ca         1 8G8      -0.032600
      2 C5           0.8180    -0.2470     0.0070 ca         1 8G8       0.099500
      3 C6          -1.4470     0.0580    -0.0760 ca         1 8G8       0.228000
      4 N1           2.3350     1.4810     0.1250 nc         1 8G8      -0.539100
      5 C7          -0.1400     1.9470     0.0390 ca         1 8G8       0.188900
      6 N2          -0.4060    -0.8080    -0.0620 nb         1 8G8      -0.159000
      7 N3          -1.3780     1.4100    -0.0290 nb         1 8G8      -0.182000
      8 Cl          -3.0530    -0.6460    -0.1650 cl         1 8G8      -0.122000
      9 C3           2.9580     0.2860     0.1120 cd         1 8G8       0.427700
     10 N            2.0690    -0.8000     0.0400 na         1 8G8      -0.278300
     11 C1           2.3540    -2.2430     0.0050 c3         1 8G8       0.071900
     12 H8          -0.0630     3.0320     0.0780 h4         1 8G8       0.046100
     13 H7           4.0300     0.1310     0.1510 h5         1 8G8       0.070800
     14 H3           1.9540    -2.6750    -0.9220 h1         1 8G8       0.060700
     15 H1           3.4370    -2.4120     0.0430 h1         1 8G8       0.060700
     16 H2           1.8810    -2.7330     0.8650 h1         1 8G8       0.060700
@<TRIPOS>BOND
     1     1     2 ar  
     2     1     4 1   
     3     1     5 ar  
     4     2     6 ar  
     5     2    10 1   
     6     3     6 ar  
     7     3     7 ar  
     8     3     8 1   
     9     4     9 2   
    10     5     7 ar  
    11     5    12 1   
    12     9    10 1   
    13     9    13 1   
    14    10    11 1   
    15    11    14 1   
    16    11    15 1   
    17    11    16 1   
@<TRIPOS>SUBSTRUCTURE
     1 8G8         1 TEMP              0 ****  ****    0 ROOT
