@<TRIPOS>MOLECULE
8G9
   81    83     1     0     0
SMALL
No Charge or Current Charge


@<TRIPOS>ATOM
      1 C11        -13.7590    -8.2730     3.5860 c3         1 8G9       0.053700
      2 C12        -13.7190    -8.2640     2.0230 c          1 8G9       0.587100
      3 C13        -15.3010    -6.2840     1.8740 c5         1 8G9       0.131000
      4 C14        -14.0320    -7.0190    -0.1480 c5         1 8G9       0.057700
      5 C15        -12.5570    -6.7020    -0.5470 c          1 8G9       0.599100
      6 C16        -15.7650    -5.4500     0.6720 cx         1 8G9      -0.121700
      7 C17        -11.0250    -7.1200    -2.5080 c3         1 8G9       0.105700
      8 C18        -16.4900    -6.1840    -0.4480 cx         1 8G9      -0.075000
      9 C19        -10.5600    -8.5810    -2.7540 c3         1 8G9      -0.070400
     10 C20        -10.5370    -9.4950    -1.4920 c5         1 8G9      -0.155700
     11 C21         -9.5710    -9.0470    -0.3590 c5         1 8G9      -0.089400
     12 C22         -9.4280   -10.3640     0.4520 c5         1 8G9       0.099000
     13 C23        -17.4360    -5.3760    -1.3350 c3         1 8G9      -0.065600
     14 C24        -10.0770   -10.9310    -1.7680 c          1 8G9       0.563000
     15 C25        -17.0430    -7.6100    -0.2790 c3         1 8G9      -0.065600
     16 C26        -12.6060    -7.7980     5.8220 c3         1 8G9      -0.088433
     17 C27        -16.2450   -12.9190     2.2090 c3         1 8G9      -0.105100
     18 C28        -17.5170   -12.2320     4.3060 c3         1 8G9      -0.105100
     19 C29        -15.6920   -13.9670     4.4350 c3         1 8G9      -0.105100
     20 C30        -12.4880    -7.6550     4.2780 c3         1 8G9      -0.038000
     21 C31        -12.3710    -6.1430     3.9500 c3         1 8G9      -0.088433
     22 C32        -11.1860    -8.3660     3.8090 c3         1 8G9      -0.088433
     23 C34        -15.0000    -5.8890    -0.5480 cx         1 8G9      -0.135700
     24 C7         -16.1430   -12.6640     3.7340 c3         1 8G9       0.155400
     25 C8         -11.0600    -6.2560    -3.7980 c3         1 8G9       0.149600
     26 C9         -15.1160   -10.3440     3.5900 c          1 8G9       0.650100
     27 N10        -14.0150    -9.6580     4.0060 ns         1 8G9      -0.500900
     28 N13        -14.2100    -7.1320     1.3310 n          1 8G9      -0.386800
     29 N23         -9.4360   -11.3440    -0.6310 ns         1 8G9      -0.514900
     30 N8         -15.1240   -11.6460     4.0190 ns         1 8G9      -0.524900
     31 O26        -10.0330   -11.5480    -2.8200 o          1 8G9      -0.563000
     32 O29        -15.9740    -9.8180     2.9020 o          1 8G9      -0.658100
     33 O33        -13.1870    -9.1730     1.3860 o          1 8G9      -0.634100
     34 O38        -11.7000    -6.1570     0.1390 o          1 8G9      -0.601100
     35 O9          -9.7520    -6.1330    -4.3760 oh         1 8G9      -0.657000
     36 H1         -14.6280    -7.6870     3.9050 h1         1 8G9       0.090700
     37 H2         -14.9250    -5.6400     2.6780 h1         1 8G9       0.067200
     38 H3         -16.1120    -6.8930     2.2950 h1         1 8G9       0.067200
     39 H4         -14.3000    -7.9660    -0.6340 h1         1 8G9       0.081700
     40 H5         -15.9730    -4.3910     0.8070 hc         1 8G9       0.098700
     41 H6         -10.2940    -6.6510    -1.8360 h1         1 8G9       0.092700
     42 H7         -11.2180    -9.0290    -3.5090 hc         1 8G9       0.065200
     43 H8          -9.5590    -8.5630    -3.2000 hc         1 8G9       0.065200
     44 H9         -11.5440    -9.5690    -1.0650 hc         1 8G9       0.087700
     45 H10         -8.6020    -8.7320    -0.7620 hc         1 8G9       0.063700
     46 H11         -9.9600    -8.2240     0.2490 hc         1 8G9       0.063700
     47 H12        -10.2780   -10.5120     1.1320 h1         1 8G9       0.044200
     48 H13        -18.4370    -5.3150    -0.8910 hc         1 8G9       0.042033
     49 H14        -17.0770    -4.3500    -1.4800 hc         1 8G9       0.042033
     50 H15        -17.5330    -5.8340    -2.3270 hc         1 8G9       0.042033
     51 H16        -16.4230    -8.2560     0.3510 hc         1 8G9       0.042033
     52 H17        -18.0400    -7.5860     0.1750 hc         1 8G9       0.042033
     53 H18        -17.1340    -8.1060    -1.2520 hc         1 8G9       0.042033
     54 H19        -11.7690    -7.3010     6.3280 hc         1 8G9       0.039589
     55 H20        -13.5360    -7.3440     6.1870 hc         1 8G9       0.039589
     56 H21        -12.5980    -8.8500     6.1340 hc         1 8G9       0.039589
     57 H22        -16.9330   -13.7460     1.9990 hc         1 8G9       0.044367
     58 H23        -16.6170   -12.0370     1.6760 hc         1 8G9       0.044367
     59 H24        -15.2650   -13.1790     1.7920 hc         1 8G9       0.044367
     60 H25        -17.4410   -12.0070     5.3760 hc         1 8G9       0.044367
     61 H26        -17.9040   -11.3420     3.7980 hc         1 8G9       0.044367
     62 H27        -18.2580   -13.0320     4.1800 hc         1 8G9       0.044367
     63 H28        -15.6040   -13.8200     5.5180 hc         1 8G9       0.044367
     64 H29        -16.4130   -14.7750     4.2620 hc         1 8G9       0.044367
     65 H30        -14.7170   -14.2980     4.0570 hc         1 8G9       0.044367
     66 H31        -11.5010    -5.7010     4.4500 hc         1 8G9       0.039589
     67 H32        -12.2510    -5.9720     2.8740 hc         1 8G9       0.039589
     68 H33        -13.2600    -5.5970     4.2880 hc         1 8G9       0.039589
     69 H34        -10.3130    -7.9710     4.3430 hc         1 8G9       0.039589
     70 H35        -11.2300    -9.4460     3.9960 hc         1 8G9       0.039589
     71 H36        -11.0110    -8.2130     2.7380 hc         1 8G9       0.039589
     72 H37        -14.6780    -5.1340    -1.2630 hc         1 8G9       0.099700
     73 H38        -11.4500    -5.2610    -3.5460 h1         1 8G9       0.023200
     74 H39        -11.7530    -6.7120    -4.5180 h1         1 8G9       0.023200
     75 H40        -13.2790   -10.1670     4.4660 hn         1 8G9       0.308500
     76 H41        -13.1240    -7.5210    -2.3370 hn         1 8G9       0.315500
     77 H42        -14.3400   -11.9290     4.5890 hn         1 8G9       0.308500
     78 H43         -9.8440    -5.5740    -5.1800 ho         1 8G9       0.447000
     79 H44         -8.5020   -10.3850     1.0420 h1         1 8G9       0.044200
     80 H45         -8.9710   -12.2440    -0.6280 hn         1 8G9       0.323500
     81 N16        -12.3370    -7.1110    -1.8470 ns         1 8G9      -0.502900
@<TRIPOS>BOND
     1     1     2 1   
     2     1    20 1   
     3     1    27 1   
     4     1    36 1   
     5     2    28 1   
     6     2    33 2   
     7     3     6 1   
     8     3    28 1   
     9     3    37 1   
    10     3    38 1   
    11     4     5 1   
    12     4    23 1   
    13     4    28 1   
    14     4    39 1   
    15     5    34 2   
    16     5    81 1   
    17     6     8 1   
    18     6    23 1   
    19     6    40 1   
    20     7     9 1   
    21     7    25 1   
    22     7    41 1   
    23     7    81 1   
    24     8    13 1   
    25     8    15 1   
    26     8    23 1   
    27     9    10 1   
    28     9    42 1   
    29     9    43 1   
    30    10    11 1   
    31    10    14 1   
    32    10    44 1   
    33    11    12 1   
    34    11    45 1   
    35    11    46 1   
    36    12    29 1   
    37    12    47 1   
    38    12    79 1   
    39    13    48 1   
    40    13    49 1   
    41    13    50 1   
    42    14    29 1   
    43    14    31 2   
    44    15    51 1   
    45    15    52 1   
    46    15    53 1   
    47    16    20 1   
    48    16    54 1   
    49    16    55 1   
    50    16    56 1   
    51    17    24 1   
    52    17    57 1   
    53    17    58 1   
    54    17    59 1   
    55    18    24 1   
    56    18    60 1   
    57    18    61 1   
    58    18    62 1   
    59    19    24 1   
    60    19    63 1   
    61    19    64 1   
    62    19    65 1   
    63    20    21 1   
    64    20    22 1   
    65    21    66 1   
    66    21    67 1   
    67    21    68 1   
    68    22    69 1   
    69    22    70 1   
    70    22    71 1   
    71    23    72 1   
    72    24    30 1   
    73    25    35 1   
    74    25    73 1   
    75    25    74 1   
    76    26    27 1   
    77    26    30 1   
    78    26    32 2   
    79    27    75 1   
    80    29    80 1   
    81    30    77 1   
    82    35    78 1   
    83    76    81 1   
@<TRIPOS>SUBSTRUCTURE
     1 8G9         1 TEMP              0 ****  ****    0 ROOT
