@<TRIPOS>MOLECULE
8G9
   81    83     1     0     0
SMALL
bcc


@<TRIPOS>ATOM
      1 C11        -13.5930    -8.4550     3.3450 c3         1 8G9       0.053700
      2 C12        -13.4780    -8.3840     1.8210 c          1 8G9       0.654100
      3 C13        -15.1190    -6.4780     1.7240 c5         1 8G9       0.131000
      4 C14        -14.1240    -7.4250    -0.2910 c5         1 8G9       0.057700
      5 C15        -12.7600    -6.8800    -0.7130 c          1 8G9       0.666100
      6 C16        -15.8270    -5.8860     0.5330 cx         1 8G9      -0.121700
      7 C17        -10.9910    -7.0690    -2.4220 c3         1 8G9       0.105700
      8 C18        -16.6380    -6.7840    -0.3590 cx         1 8G9      -0.075000
      9 C19        -10.1730    -8.3300    -2.6890 c3         1 8G9      -0.070400
     10 C20         -9.9690    -9.1760    -1.4440 c5         1 8G9      -0.155700
     11 C21         -9.2040    -8.5070    -0.3020 c5         1 8G9      -0.089400
     12 C22         -8.5370    -9.6780     0.4210 c5         1 8G9       0.099000
     13 C23        -17.6790    -6.0880    -1.2060 c3         1 8G9      -0.065600
     14 C24         -9.1630   -10.4390    -1.7100 c          1 8G9       0.705500
     15 C25        -17.0660    -8.1680     0.0670 c3         1 8G9      -0.065600
     16 C26        -12.6120    -7.9870     5.5840 c3         1 8G9      -0.088433
     17 C27        -17.4950   -11.9840     2.5090 c3         1 8G9      -0.105100
     18 C28        -17.6270   -11.7790     5.0120 c3         1 8G9      -0.105100
     19 C29        -16.4460   -13.7010     3.9700 c3         1 8G9      -0.105100
     20 C30        -12.3190    -7.9690     4.0820 c3         1 8G9      -0.038000
     21 C31        -12.0270    -6.5290     3.6560 c3         1 8G9      -0.088433
     22 C32        -11.0830    -8.8280     3.8110 c3         1 8G9      -0.088433
     23 C34        -15.2120    -6.4600    -0.7090 cx         1 8G9      -0.135700
     24 C7         -16.7580   -12.2120     3.8300 c3         1 8G9       0.155400
     25 C8         -11.2190    -6.2350    -3.6800 c3         1 8G9       0.126400
     26 C9         -15.2730   -10.1930     3.7030 c          1 8G9       0.784100
     27 N10        -13.9560    -9.8020     3.7160 ns         1 8G9      -0.567900
     28 N13        -14.2240    -7.4850     1.1560 n          1 8G9      -0.453800
     29 N23         -8.3700   -10.6430    -0.6440 ns         1 8G9      -0.581900
     30 N8         -15.4630   -11.5250     3.8400 ns         1 8G9      -0.591900
     31 O26         -9.2360   -11.1460    -2.7020 o          1 8G9      -0.638500
     32 O29        -16.1880    -9.3800     3.6030 o          1 8G9      -0.658100
     33 O33        -12.7510    -9.1670     1.2180 o          1 8G9      -0.634100
     34 O38        -12.2060    -5.9980    -0.0750 o          1 8G9      -0.601100
     35 O9          -9.9710    -5.8170    -4.1750 oh         1 8G9      -0.594800
     36 H1         -14.3990    -7.8090     3.6900 h1         1 8G9       0.090700
     37 H2         -14.5570    -5.7020     2.2480 h1         1 8G9       0.067200
     38 H3         -15.8090    -6.9360     2.4340 h1         1 8G9       0.067200
     39 H4         -14.2800    -8.4210    -0.7180 h1         1 8G9       0.081700
     40 H5         -16.0900    -4.8370     0.5930 hc         1 8G9       0.098700
     41 H6         -10.4690    -6.4470    -1.6910 h1         1 8G9       0.092700
     42 H7         -10.6690    -8.9280    -3.4610 hc         1 8G9       0.065200
     43 H8          -9.2030    -8.0360    -3.0950 hc         1 8G9       0.065200
     44 H9         -10.9440    -9.5140    -1.0690 hc         1 8G9       0.087700
     45 H10         -8.4400    -7.8400    -0.7100 hc         1 8G9       0.063700
     46 H11         -9.8380    -7.9230     0.3620 hc         1 8G9       0.063700
     47 H12         -9.1750   -10.0730     1.2190 h1         1 8G9       0.044200
     48 H13        -18.6140    -5.9760    -0.6530 hc         1 8G9       0.042033
     49 H14        -17.3550    -5.0930    -1.5140 hc         1 8G9       0.042033
     50 H15        -17.8940    -6.6620    -2.1090 hc         1 8G9       0.042033
     51 H16        -16.3630    -8.6730     0.7270 hc         1 8G9       0.042033
     52 H17        -18.0220    -8.1180     0.5910 hc         1 8G9       0.042033
     53 H18        -17.2080    -8.8030    -0.8100 hc         1 8G9       0.042033
     54 H19        -11.7630    -7.5820     6.1380 hc         1 8G9       0.039589
     55 H20        -13.4860    -7.3790     5.8280 hc         1 8G9       0.039589
     56 H21        -12.7940    -8.9980     5.9500 hc         1 8G9       0.039589
     57 H22        -18.4170   -12.5660     2.4950 hc         1 8G9       0.044367
     58 H23        -17.7560   -10.9380     2.3630 hc         1 8G9       0.044367
     59 H24        -16.8820   -12.3060     1.6650 hc         1 8G9       0.044367
     60 H25        -17.1100   -11.9560     5.9570 hc         1 8G9       0.044367
     61 H26        -17.8900   -10.7240     4.9570 hc         1 8G9       0.044367
     62 H27        -18.5530   -12.3560     5.0230 hc         1 8G9       0.044367
     63 H28        -15.9240   -13.9120     4.9050 hc         1 8G9       0.044367
     64 H29        -17.3700   -14.2780     3.9670 hc         1 8G9       0.044367
     65 H30        -15.8280   -14.0570     3.1430 hc         1 8G9       0.044367
     66 H31        -11.1650    -6.1460     4.2050 hc         1 8G9       0.039589
     67 H32        -11.7960    -6.4480     2.5920 hc         1 8G9       0.039589
     68 H33        -12.8710    -5.8680     3.8690 hc         1 8G9       0.039589
     69 H34        -10.2570    -8.4720     4.4300 hc         1 8G9       0.039589
     70 H35        -11.2370    -9.8780     4.0670 hc         1 8G9       0.039589
     71 H36        -10.7590    -8.7770     2.7720 hc         1 8G9       0.039589
     72 H37        -15.0250    -5.8460    -1.5830 hc         1 8G9       0.099700
     73 H38        -11.8590    -5.3830    -3.4170 h1         1 8G9       0.023200
     74 H39        -11.7700    -6.8410    -4.4130 h1         1 8G9       0.023200
     75 H40        -13.2560   -10.5100     3.5540 hn         1 8G9       0.308500
     76 H41        -12.7970    -8.1540    -2.2840 hn         1 8G9       0.315500
     77 H42        -14.6490   -12.1100     3.9420 hn         1 8G9       0.308500
     78 H43        -10.1140    -5.3470    -5.0010 ho         1 8G9       0.408000
     79 H44         -7.5780    -9.4090     0.8630 h1         1 8G9       0.044200
     80 H45         -7.8250   -11.4830    -0.5360 hn         1 8G9       0.323500
     81 N16        -12.2730    -7.4130    -1.8430 ns         1 8G9      -0.569900
@<TRIPOS>BOND
     1     1     2 1   
     2     1    20 1   
     3     1    27 1   
     4     1    36 1   
     5     2    28 1   
     6     2    33 2   
     7     3     6 1   
     8     3    28 1   
     9     3    37 1   
    10     3    38 1   
    11     4     5 1   
    12     4    23 1   
    13     4    28 1   
    14     4    39 1   
    15     5    34 2   
    16     5    81 1   
    17     6     8 1   
    18     6    23 1   
    19     6    40 1   
    20     7     9 1   
    21     7    25 1   
    22     7    41 1   
    23     7    81 1   
    24     8    13 1   
    25     8    15 1   
    26     8    23 1   
    27     9    10 1   
    28     9    42 1   
    29     9    43 1   
    30    10    11 1   
    31    10    14 1   
    32    10    44 1   
    33    11    12 1   
    34    11    45 1   
    35    11    46 1   
    36    12    29 1   
    37    12    47 1   
    38    12    79 1   
    39    13    48 1   
    40    13    49 1   
    41    13    50 1   
    42    14    29 1   
    43    14    31 2   
    44    15    51 1   
    45    15    52 1   
    46    15    53 1   
    47    16    20 1   
    48    16    54 1   
    49    16    55 1   
    50    16    56 1   
    51    17    24 1   
    52    17    57 1   
    53    17    58 1   
    54    17    59 1   
    55    18    24 1   
    56    18    60 1   
    57    18    61 1   
    58    18    62 1   
    59    19    24 1   
    60    19    63 1   
    61    19    64 1   
    62    19    65 1   
    63    20    21 1   
    64    20    22 1   
    65    21    66 1   
    66    21    67 1   
    67    21    68 1   
    68    22    69 1   
    69    22    70 1   
    70    22    71 1   
    71    23    72 1   
    72    24    30 1   
    73    25    35 1   
    74    25    73 1   
    75    25    74 1   
    76    26    27 1   
    77    26    30 1   
    78    26    32 2   
    79    27    75 1   
    80    29    80 1   
    81    30    77 1   
    82    35    78 1   
    83    76    81 1   
@<TRIPOS>SUBSTRUCTURE
     1 8G9         1 TEMP              0 ****  ****    0 ROOT
