@<TRIPOS>MOLECULE
8GA
   23    23     1     0     0
SMALL
No Charge or Current Charge


@<TRIPOS>ATOM
      1 CS           3.7160     0.2690     0.4740 c3         1 8GA       0.098900
      2 C5           0.8990     0.6330     0.6010 c3         1 8GA       0.124600
      3 C4          -0.5610     0.2830     0.2220 c5         1 8GA       0.182300
      4 O4          -0.9320    -1.0130     0.7410 os         1 8GA      -0.471000
      5 C1          -2.3640    -1.1050     0.7210 c5         1 8GA       0.352300
      6 O1          -2.7420    -1.9120    -0.3850 oh         1 8GA      -0.720000
      7 C2          -2.9110     0.3670     0.5380 c5         1 8GA       0.111300
      8 O2          -3.3220     0.5850    -0.8250 oh         1 8GA      -0.690000
      9 C3          -1.6390     1.2030     0.8640 c5         1 8GA       0.142300
     10 O3          -1.7290     2.5050     0.2770 oh         1 8GA      -0.684000
     11 SE           2.1620    -0.4450    -0.2410 ss         1 8GA      -0.515000
     12 H1           3.7950     1.3320     0.2120 h1         1 8GA       0.054700
     13 H2           3.7060     0.1680     1.5670 h1         1 8GA       0.054700
     14 H3           4.5880    -0.2640     0.0740 h1         1 8GA       0.054700
     15 H4           1.0920     1.6780     0.3250 h1         1 8GA       0.065200
     16 H5           1.0170     0.5450     1.6890 h1         1 8GA       0.065200
     17 H6          -0.6470     0.2720    -0.8740 h1         1 8GA       0.091700
     18 H7          -2.7180    -1.5470     1.6620 h2         1 8GA       0.041700
     19 H8          -2.1830    -2.7190    -0.3040 ho         1 8GA       0.526000
     20 H9          -3.7320     0.5820     1.2360 h1         1 8GA       0.045700
     21 H10         -3.3270    -0.3400    -1.1910 ho         1 8GA       0.523000
     22 H11         -1.4850     1.2800     1.9500 h1         1 8GA       0.036700
     23 H12         -2.3930     2.3840    -0.4480 ho         1 8GA       0.510000
@<TRIPOS>BOND
     1     1    11 1   
     2     1    12 1   
     3     1    13 1   
     4     1    14 1   
     5     2     3 1   
     6     2    11 1   
     7     2    15 1   
     8     2    16 1   
     9     3     4 1   
    10     3     9 1   
    11     3    17 1   
    12     4     5 1   
    13     5     6 1   
    14     5     7 1   
    15     5    18 1   
    16     6    19 1   
    17     7     8 1   
    18     7     9 1   
    19     7    20 1   
    20     8    21 1   
    21     9    10 1   
    22     9    22 1   
    23    10    23 1   
@<TRIPOS>SUBSTRUCTURE
     1 8GA         1 TEMP              0 ****  ****    0 ROOT
