@<TRIPOS>MOLECULE
8GA
   23    23     1     0     0
SMALL
abcg2


@<TRIPOS>ATOM
      1 CS           3.7640     0.4110     0.5100 c3         1 8GA       0.098900
      2 C5           0.8430     0.5970     0.7460 c3         1 8GA       0.124600
      3 C4          -0.4900     0.2910     0.1020 c5         1 8GA       0.182300
      4 O4          -0.8610    -1.0480     0.3810 os         1 8GA      -0.471000
      5 C1          -2.2620    -1.1620     0.5750 c5         1 8GA       0.352300
      6 O1          -2.8180    -2.0830    -0.2930 oh         1 8GA      -0.720000
      7 C2          -2.8430     0.2320     0.3050 c5         1 8GA       0.111300
      8 O2          -3.1530     0.4280    -1.0460 oh         1 8GA      -0.690000
      9 C3          -1.6500     1.1170     0.6580 c5         1 8GA       0.142300
     10 O3          -1.6460     2.3990     0.1100 oh         1 8GA      -0.684000
     11 SE           2.1950    -0.6970     0.1580 ss         1 8GA      -0.515000
     12 H1           3.7480     1.3120    -0.1020 h1         1 8GA       0.054700
     13 H2           3.8170     0.6870     1.5620 h1         1 8GA       0.054700
     14 H3           4.6500    -0.1700     0.2560 h1         1 8GA       0.054700
     15 H4           1.1680     1.5950     0.4440 h1         1 8GA       0.065200
     16 H5           0.7630     0.5760     1.8350 h1         1 8GA       0.065200
     17 H6          -0.4130     0.4530    -0.9820 h1         1 8GA       0.091700
     18 H7          -2.4340    -1.4560     1.6180 h2         1 8GA       0.041700
     19 H8          -2.7620    -2.9650     0.0900 ho         1 8GA       0.526000
     20 H9          -3.7100     0.4190     0.9520 h1         1 8GA       0.045700
     21 H10         -3.7520    -0.2740    -1.3210 ho         1 8GA       0.523000
     22 H11         -1.5650     1.1440     1.7550 h1         1 8GA       0.036700
     23 H12         -2.2970     2.9340     0.5730 ho         1 8GA       0.510000
@<TRIPOS>BOND
     1     1    11 1   
     2     1    12 1   
     3     1    13 1   
     4     1    14 1   
     5     2     3 1   
     6     2    11 1   
     7     2    15 1   
     8     2    16 1   
     9     3     4 1   
    10     3     9 1   
    11     3    17 1   
    12     4     5 1   
    13     5     6 1   
    14     5     7 1   
    15     5    18 1   
    16     6    19 1   
    17     7     8 1   
    18     7     9 1   
    19     7    20 1   
    20     8    21 1   
    21     9    10 1   
    22     9    22 1   
    23    10    23 1   
@<TRIPOS>SUBSTRUCTURE
     1 8GA         1 TEMP              0 ****  ****    0 ROOT
