@<TRIPOS>MOLECULE
8GB
   21    21     1     0     0
SMALL
bcc


@<TRIPOS>ATOM
      1 C4          -0.8360     1.5960    -0.2760 ca         1 8GB      -0.041600
      2 C5           0.5260     1.4570    -0.5220 ca         1 8GB      -0.030000
      3 C6           1.1200     0.2100    -0.5120 ca         1 8GB      -0.160300
      4 C7           0.3380    -0.9250    -0.2390 ca         1 8GB       0.245100
      5 C8           2.5790     0.0680    -0.7770 c3         1 8GB       0.116300
      6 CL1         -1.5500     3.1740    -0.3030 cl         1 8GB      -0.100400
      7 C3          -1.6140     0.4930    -0.0120 ca         1 8GB      -0.025000
      8 CL           3.4780    -0.2690     0.7570 cl         1 8GB      -0.203400
      9 O1           0.9470    -2.1010    -0.2320 oh         1 8GB      -0.491100
     10 C2          -1.0410    -0.7830     0.0110 ca         1 8GB      -0.299600
     11 C1          -1.8570    -1.9760     0.2940 c          1 8GB       0.607700
     12 O           -1.3380    -3.0870     0.3060 o          1 8GB      -0.566100
     13 C           -3.3220    -1.8200     0.5630 c3         1 8GB      -0.190100
     14 H4           1.1290     2.3320    -0.7270 ha         1 8GB       0.152000
     15 H6           2.8040    -0.7520    -1.4540 h1         1 8GB       0.074200
     16 H7           2.9950     0.9850    -1.1850 h1         1 8GB       0.074200
     17 H3          -2.6700     0.6200     0.1760 ha         1 8GB       0.148000
     18 H5           0.2650    -2.7880    -0.0380 ho         1 8GB       0.482000
     19 H1          -3.4990    -1.1370     1.3940 hc         1 8GB       0.068700
     20 H           -3.8300    -1.4060    -0.3100 hc         1 8GB       0.068700
     21 H2          -3.7640    -2.7840     0.8000 hc         1 8GB       0.068700
@<TRIPOS>BOND
     1     1     2 ar  
     2     1     6 1   
     3     1     7 ar  
     4     2     3 ar  
     5     2    14 1   
     6     3     4 ar  
     7     3     5 1   
     8     4     9 1   
     9     4    10 ar  
    10     5     8 1   
    11     5    15 1   
    12     5    16 1   
    13     7    10 ar  
    14     7    17 1   
    15     9    18 1   
    16    10    11 1   
    17    11    12 2   
    18    11    13 1   
    19    13    19 1   
    20    13    20 1   
    21    13    21 1   
@<TRIPOS>SUBSTRUCTURE
     1 8GB         1 TEMP              0 ****  ****    0 ROOT
