@<TRIPOS>MOLECULE
8GB
   21    21     1     0     0
SMALL
No Charge or Current Charge


@<TRIPOS>ATOM
      1 C4          -0.8040     1.6120    -0.2280 ca         1 8GB       0.050000
      2 C5           0.5650     1.4690    -0.4870 ca         1 8GB      -0.012000
      3 C6           1.1500     0.1900    -0.5050 ca         1 8GB      -0.160300
      4 C7           0.3510    -0.9480    -0.2580 ca         1 8GB       0.245100
      5 C8           2.6460     0.0690    -0.7870 c3         1 8GB       0.192900
      6 Cl1         -1.5270     3.2160    -0.2070 cl         1 8GB      -0.192000
      7 C3          -1.6010     0.4830     0.0160 ca         1 8GB      -0.007000
      8 Cl           3.6150     0.2900     0.7360 cl         1 8GB      -0.280000
      9 O1           0.9320    -2.1790    -0.2740 oh         1 8GB      -0.530100
     10 C2          -1.0370    -0.8180     0.0060 ca         1 8GB      -0.299600
     11 C1          -1.9060    -2.0320     0.2740 c          1 8GB       0.607700
     12 O           -1.4180    -3.1570     0.2700 o          1 8GB      -0.566100
     13 C           -3.3990    -1.8660     0.5510 c3         1 8GB      -0.190100
     14 H4           1.1700     2.3540    -0.6710 ha         1 8GB       0.134000
     15 H6           2.9020    -0.9100    -1.2100 h1         1 8GB       0.074200
     16 H7           2.9660     0.8440    -1.4950 h1         1 8GB       0.074200
     17 H3          -2.6570     0.6440     0.2130 ha         1 8GB       0.130000
     18 H5           0.2070    -2.8260    -0.0760 ho         1 8GB       0.521000
     19 H1          -3.5330    -1.1870     1.4000 hc         1 8GB       0.068700
     20 H           -3.8590    -1.3180    -0.2780 hc         1 8GB       0.068700
     21 H2          -3.9020    -2.8240     0.7240 hc         1 8GB       0.068700
@<TRIPOS>BOND
     1     1     2 ar  
     2     1     6 1   
     3     1     7 ar  
     4     2     3 ar  
     5     2    14 1   
     6     3     4 ar  
     7     3     5 1   
     8     4     9 1   
     9     4    10 ar  
    10     5     8 1   
    11     5    15 1   
    12     5    16 1   
    13     7    10 ar  
    14     7    17 1   
    15     9    18 1   
    16    10    11 1   
    17    11    12 2   
    18    11    13 1   
    19    13    19 1   
    20    13    20 1   
    21    13    21 1   
@<TRIPOS>SUBSTRUCTURE
     1 8GB         1 TEMP              0 ****  ****    0 ROOT
