@<TRIPOS>MOLECULE
8GC
   19    19     1     0     0
SMALL
No Charge or Current Charge


@<TRIPOS>ATOM
      1 C2          -2.0230     0.3140    -0.0230 c          1 8GC       0.622700
      2 C4          -0.5890    -0.1590     0.0020 ca         1 8GC      -0.156600
      3 C5          -0.2410    -1.5310     0.0130 ca         1 8GC       0.021000
      4 C6           1.1140    -1.9110     0.0310 ca         1 8GC      -0.116000
      5 C7           2.1220    -0.9300     0.0410 ca         1 8GC      -0.005300
      6 C10          0.4500     0.8030     0.0120 ca         1 8GC      -0.017000
      7 N8           1.7960     0.4270     0.0400 na         1 8GC       0.065300
      8 N3          -3.0130    -0.6050    -0.0340 nt         1 8GC      -0.579000
      9 O1          -2.3140     1.4980    -0.0340 o          1 8GC      -0.563100
     10 H1          -0.9980    -2.3120     0.0060 ha         1 8GC       0.161000
     11 H2           1.3830    -2.9660     0.0360 ha         1 8GC       0.181000
     12 H3           3.1790    -1.2030     0.0510 h4         1 8GC       0.188000
     13 H4           3.0880     1.7360    -0.9950 h1         1 8GC       0.100033
     14 H5           2.5250     2.3360     0.5930 h1         1 8GC       0.100033
     15 H6           3.7630     1.0570     0.5150 h1         1 8GC       0.100033
     16 H7           0.2330     1.8730    -0.0010 h4         1 8GC       0.210000
     17 H8          -3.9710    -0.2870    -0.0510 hn         1 8GC       0.337500
     18 H9          -2.8070    -1.5900    -0.0260 hn         1 8GC       0.337500
     19 C9           2.8560     1.4500     0.0380 c3         1 8GC       0.010900
@<TRIPOS>BOND
     1     1     2 1   
     2     1     8 1   
     3     1     9 2   
     4     2     3 ar  
     5     2     6 ar  
     6     3     4 ar  
     7     3    10 1   
     8     4     5 ar  
     9     4    11 1   
    10     5     7 2   
    11     5    12 1   
    12     6     7 1   
    13     6    16 1   
    14     7    19 1   
    15     8    17 1   
    16     8    18 1   
    17    13    19 1   
    18    14    19 1   
    19    15    19 1   
@<TRIPOS>SUBSTRUCTURE
     1 8GC         1 TEMP              0 ****  ****    0 ROOT
