@<TRIPOS>MOLECULE
8GC
   19    19     1     0     0
SMALL
bcc


@<TRIPOS>ATOM
      1 C2          -1.9710     0.3410    -0.0230 c          1 8GC       0.689700
      2 C4          -0.5640    -0.1930    -0.0010 ca         1 8GC      -0.156600
      3 C5          -0.2070    -1.5360    -0.0050 ca         1 8GC       0.003000
      4 C6           1.1320    -1.8920     0.0180 ca         1 8GC      -0.134000
      5 C7           2.0890    -0.9080     0.0440 ca         1 8GC      -0.023300
      6 C10          0.4470     0.7480     0.0260 ca         1 8GC       0.015700
      7 N8           1.7310     0.3840     0.0500 na         1 8GC       0.043900
      8 N3          -2.9540    -0.5590    -0.0310 nt         1 8GC      -0.646000
      9 O1          -2.1540     1.5470    -0.0350 o          1 8GC      -0.563100
     10 H1          -0.9460    -2.3250    -0.0230 ha         1 8GC       0.179000
     11 H2           1.4360    -2.9270     0.0150 ha         1 8GC       0.199000
     12 H3           3.1470    -1.1210     0.0630 h4         1 8GC       0.206000
     13 H4           3.0300     1.6450    -0.9990 h1         1 8GC       0.100033
     14 H5           2.4000     2.3100     0.5260 h1         1 8GC       0.100033
     15 H6           3.6470     1.0540     0.5610 h1         1 8GC       0.100033
     16 H7           0.2420     1.8080     0.0320 h4         1 8GC       0.228000
     17 H8          -3.9120    -0.2430    -0.0370 hn         1 8GC       0.337500
     18 H9          -2.8140    -1.5530    -0.0010 hn         1 8GC       0.337500
     19 C9           2.7730     1.4190     0.0330 c3         1 8GC      -0.018400
@<TRIPOS>BOND
     1     1     2 1   
     2     1     8 1   
     3     1     9 2   
     4     2     3 ar  
     5     2     6 ar  
     6     3     4 ar  
     7     3    10 1   
     8     4     5 ar  
     9     4    11 1   
    10     5     7 2   
    11     5    12 1   
    12     6     7 1   
    13     6    16 1   
    14     7    19 1   
    15     8    17 1   
    16     8    18 1   
    17    13    19 1   
    18    14    19 1   
    19    15    19 1   
@<TRIPOS>SUBSTRUCTURE
     1 8GC         1 TEMP              0 ****  ****    0 ROOT
