@<TRIPOS>MOLECULE
8GE
   31    33     1     0     0
SMALL
No Charge or Current Charge


@<TRIPOS>ATOM
      1 S1          -4.4310    -0.0140    -0.0220 sy         1 8GE       1.128600
      2 O1          -4.9380    -1.2900    -0.5210 o          1 8GE      -0.544500
      3 O2          -4.9680     1.2680    -0.4720 o          1 8GE      -0.544500
      4 N3          -4.8060    -0.0490     1.5650 n8         1 8GE      -1.003100
      5 C4          -2.6350     0.0070    -0.0150 ca         1 8GE      -0.270500
      6 C5          -1.9110    -1.2010    -0.0330 ca         1 8GE      -0.006000
      7 C6          -0.5060    -1.1810    -0.0280 ca         1 8GE      -0.126000
      8 C7           0.2030     0.0410    -0.0030 ca         1 8GE       0.028200
      9 C8          -0.5340     1.2450     0.0180 ca         1 8GE      -0.126000
     10 C9          -1.9400     1.2310     0.0130 ca         1 8GE      -0.006000
     11 C3           6.2710     0.6480     0.0290 ca         1 8GE      -0.141000
     12 C2           6.2250    -0.7670     0.0020 ca         1 8GE      -0.084000
     13 C41          5.0760     1.4000     0.0390 ca         1 8GE      -0.055000
     14 C51          3.8650     0.6960     0.0220 ca         1 8GE      -0.106800
     15 C91          2.5150     1.1690     0.0260 cc         1 8GE      -0.202200
     16 C61          3.8140    -0.6670    -0.0050 ca         1 8GE      -0.038200
     17 C1           4.9830    -1.4390    -0.0150 ca         1 8GE      -0.130000
     18 N7           2.5010    -1.1090    -0.0170 na         1 8GE      -0.213700
     19 C81          1.6830     0.0510     0.0020 cd         1 8GE      -0.034300
     20 H1          -5.4530     0.7340     1.6170 hn         1 8GE       0.473500
     21 H2          -5.4360    -0.8480     1.5860 hn         1 8GE       0.473500
     22 H3          -2.4320    -2.1570    -0.0510 ha         1 8GE       0.137500
     23 H4           0.0260    -2.1280    -0.0430 ha         1 8GE       0.122000
     24 H5          -0.0280     2.2040     0.0390 ha         1 8GE       0.122000
     25 H6          -2.4830     2.1750     0.0320 ha         1 8GE       0.137500
     26 H8           7.1500    -1.3390    -0.0060 ha         1 8GE       0.112000
     27 H9           5.0960     2.4870     0.0600 ha         1 8GE       0.115000
     28 H10          2.1980     2.2070     0.0450 ha         1 8GE       0.206000
     29 H11          4.9380    -2.5260    -0.0360 ha         1 8GE       0.115000
     30 H12          2.1880    -2.0720    -0.0370 hn         1 8GE       0.351000
     31 H7           7.2310     1.1590     0.0420 ha         1 8GE       0.112000
@<TRIPOS>BOND
     1     1     2 2   
     2     1     3 2   
     3     1     4 1   
     4     1     5 1   
     5     4    20 1   
     6     4    21 1   
     7     5     6 ar  
     8     5    10 ar  
     9     6     7 ar  
    10     6    22 1   
    11     7     8 ar  
    12     7    23 1   
    13     8     9 ar  
    14     8    19 1   
    15     9    10 ar  
    16     9    24 1   
    17    10    25 1   
    18    11    12 ar  
    19    11    13 ar  
    20    11    31 1   
    21    12    17 ar  
    22    12    26 1   
    23    13    14 ar  
    24    13    27 1   
    25    14    15 1   
    26    14    16 ar  
    27    15    19 2   
    28    15    28 1   
    29    16    17 ar  
    30    16    18 1   
    31    17    29 1   
    32    18    19 1   
    33    18    30 1   
@<TRIPOS>SUBSTRUCTURE
     1 8GE         1 TEMP              0 ****  ****    0 ROOT
