@<TRIPOS>MOLECULE
8GE
   31    33     1     0     0
SMALL
abcg2


@<TRIPOS>ATOM
      1 S1          -4.3510    -0.1840    -0.0890 sy         1 8GE       1.128600
      2 O1          -4.7420    -1.5460    -0.4220 o          1 8GE      -0.544500
      3 O2          -4.8250     0.9060    -0.9290 o          1 8GE      -0.544500
      4 N3          -4.7520     0.0220     1.5020 n8         1 8GE      -1.003100
      5 C4          -2.5870    -0.0830    -0.0270 ca         1 8GE      -0.270500
      6 C5          -1.8540    -1.2220     0.2770 ca         1 8GE      -0.006000
      7 C6          -0.4730    -1.1520     0.3040 ca         1 8GE      -0.126000
      8 C7           0.1870     0.0480     0.0270 ca         1 8GE       0.028200
      9 C8          -0.5720     1.1820    -0.2700 ca         1 8GE      -0.126000
     10 C9          -1.9540     1.1210    -0.3010 ca         1 8GE      -0.006000
     11 C3           6.1880     0.5950     0.1830 ca         1 8GE      -0.141000
     12 C2           6.1060    -0.7540    -0.2050 ca         1 8GE      -0.084000
     13 C41          5.0500     1.3450     0.4000 ca         1 8GE      -0.055000
     14 C51          3.7990     0.7390     0.2270 ca         1 8GE      -0.106800
     15 C91          2.4530     1.1910     0.3410 cc         1 8GE      -0.202200
     16 C61          3.7400    -0.6220    -0.1470 ca         1 8GE      -0.038200
     17 C1           4.8880    -1.3810    -0.3740 ca         1 8GE      -0.130000
     18 N7           2.4240    -0.9700    -0.2270 na         1 8GE      -0.213700
     19 C81          1.6420     0.1260     0.0410 cd         1 8GE      -0.034300
     20 H1          -4.7180     0.9930     1.7940 hn         1 8GE       0.473500
     21 H2          -5.6640    -0.3740     1.7080 hn         1 8GE       0.473500
     22 H3          -2.3450    -2.1600     0.4970 ha         1 8GE       0.137500
     23 H4           0.0860    -2.0390     0.5700 ha         1 8GE       0.122000
     24 H5          -0.0810     2.1160    -0.5050 ha         1 8GE       0.122000
     25 H6          -2.5220     2.0060    -0.5520 ha         1 8GE       0.137500
     26 H8           7.0170    -1.3130    -0.3730 ha         1 8GE       0.112000
     27 H9           5.1240     2.3830     0.6980 ha         1 8GE       0.115000
     28 H10          2.1230     2.1730     0.6430 ha         1 8GE       0.206000
     29 H11          4.8270    -2.4210    -0.6700 ha         1 8GE       0.115000
     30 H12          2.0850    -1.8390    -0.6040 hn         1 8GE       0.351000
     31 H7           7.1620     1.0480     0.3150 ha         1 8GE       0.112000
@<TRIPOS>BOND
     1     1     2 2   
     2     1     3 2   
     3     1     4 1   
     4     1     5 1   
     5     4    20 1   
     6     4    21 1   
     7     5     6 ar  
     8     5    10 ar  
     9     6     7 ar  
    10     6    22 1   
    11     7     8 ar  
    12     7    23 1   
    13     8     9 ar  
    14     8    19 1   
    15     9    10 ar  
    16     9    24 1   
    17    10    25 1   
    18    11    12 ar  
    19    11    13 ar  
    20    11    31 1   
    21    12    17 ar  
    22    12    26 1   
    23    13    14 ar  
    24    13    27 1   
    25    14    15 1   
    26    14    16 ar  
    27    15    19 2   
    28    15    28 1   
    29    16    17 ar  
    30    16    18 1   
    31    17    29 1   
    32    18    19 1   
    33    18    30 1   
@<TRIPOS>SUBSTRUCTURE
     1 8GE         1 TEMP              0 ****  ****    0 ROOT
