@<TRIPOS>MOLECULE
8GF
   15    15     1     0     0
SMALL
No Charge or Current Charge


@<TRIPOS>ATOM
      1 N1          -1.2150     1.0630     0.0190 nb         1 8GF      -0.225000
      2 C2          -1.1250    -0.2850    -0.0070 ca         1 8GF       0.181300
      3 C4           1.1580    -0.3090    -0.0570 ca         1 8GF       0.395900
      4 C5           1.1840     1.0850    -0.0300 ca         1 8GF      -0.306000
      5 C6          -0.0540     1.7480     0.0080 ca         1 8GF       0.141900
      6 CAC         -2.4300    -1.0620    -0.0030 c3         1 8GF      -0.135400
      7 N3           0.0160    -1.0070    -0.0460 nb         1 8GF      -0.277000
      8 NAF          2.3000    -1.0350    -0.0940 nv         1 8GF      -1.088900
      9 H1           2.1170     1.6400    -0.0400 ha         1 8GF       0.127000
     10 H2          -0.1180     2.8340     0.0290 h4         1 8GF       0.017100
     11 H3          -2.7690    -1.2560    -1.0270 hc         1 8GF       0.057033
     12 H4          -2.3190    -2.0290     0.5030 hc         1 8GF       0.057033
     13 H5          -3.2240    -0.5100     0.5140 hc         1 8GF       0.057033
     14 H6           2.2410    -2.0320     0.1010 hn         1 8GF       0.498000
     15 H7           3.1810    -0.5790     0.1360 hn         1 8GF       0.498000
@<TRIPOS>BOND
     1     1     2 ar  
     2     1     5 ar  
     3     2     6 1   
     4     2     7 ar  
     5     3     4 ar  
     6     3     7 ar  
     7     3     8 1   
     8     4     5 ar  
     9     4     9 1   
    10     5    10 1   
    11     6    11 1   
    12     6    12 1   
    13     6    13 1   
    14     8    14 1   
    15     8    15 1   
@<TRIPOS>SUBSTRUCTURE
     1 8GF         1 TEMP              0 ****  ****    0 ROOT
