@<TRIPOS>MOLECULE
8GF
   15    15     1     0     0
SMALL
bcc


@<TRIPOS>ATOM
      1 N1          -1.2200     1.0480     0.0100 nb         1 8GF      -0.751000
      2 C2          -1.1300    -0.2760     0.0200 ca         1 8GF       0.707300
      3 C4           1.1530    -0.3150     0.0060 ca         1 8GF       0.724200
      4 C5           1.1650     1.0930    -0.0080 ca         1 8GF      -0.454600
      5 C6          -0.0580     1.7090    -0.0050 ca         1 8GF       0.470200
      6 CAC         -2.4110    -1.0500    -0.0010 c3         1 8GF      -0.135400
      7 N3          -0.0060    -0.9820     0.0200 nb         1 8GF      -0.803000
      8 NAF          2.2820    -1.0340     0.0020 nv         1 8GF      -0.978500
      9 H1           2.0870     1.6590    -0.0180 ha         1 8GF       0.145000
     10 H2          -0.1180     2.7920    -0.0130 h4         1 8GF       0.017100
     11 H3          -2.7230    -1.2280    -1.0320 hc         1 8GF       0.057033
     12 H4          -2.2940    -2.0200     0.4790 hc         1 8GF       0.057033
     13 H5          -3.2100    -0.4980     0.4900 hc         1 8GF       0.057033
     14 H6           2.2410    -2.0380     0.0350 hn         1 8GF       0.442800
     15 H7           3.1850    -0.5960     0.0210 hn         1 8GF       0.442800
@<TRIPOS>BOND
     1     1     2 ar  
     2     1     5 ar  
     3     2     6 1   
     4     2     7 ar  
     5     3     4 ar  
     6     3     7 ar  
     7     3     8 1   
     8     4     5 ar  
     9     4     9 1   
    10     5    10 1   
    11     6    11 1   
    12     6    12 1   
    13     6    13 1   
    14     8    14 1   
    15     8    15 1   
@<TRIPOS>SUBSTRUCTURE
     1 8GF         1 TEMP              0 ****  ****    0 ROOT
