@<TRIPOS>MOLECULE
8GG
   23    23     1     0     0
SMALL
No Charge or Current Charge


@<TRIPOS>ATOM
      1 O4           0.8200     0.7520    -0.7750 os         1 8GG      -0.460000
      2 C5          -0.8120    -0.6620     0.3920 c3         1 8GG       0.096600
      3 C4           0.3990    -0.6330    -0.5790 c5         1 8GG       0.178300
      4 C3           1.6580    -1.4030    -0.0340 c5         1 8GG       0.150300
      5 O3           2.4850    -1.9520    -1.0710 oh         1 8GG      -0.710000
      6 C2           2.3930    -0.2410     0.6860 c5         1 8GG       0.100300
      7 O2           3.7730    -0.5470     0.9820 oh         1 8GG      -0.718000
      8 C1           2.1900     0.8750    -0.3910 c5         1 8GG       0.353300
      9 O1           2.4060     2.1760     0.1170 oh         1 8GG      -0.724000
     10 SE          -2.3440     0.1220    -0.3140 ss         1 8GG      -0.499000
     11 CS          -3.5010    -0.0990     1.1160 c3         1 8GG       0.093900
     12 H1          -1.0410    -1.7070     0.6380 h1         1 8GG       0.060700
     13 H2          -0.5430    -0.1470     1.3230 h1         1 8GG       0.060700
     14 H3           0.0780    -1.0540    -1.5420 h1         1 8GG       0.099700
     15 H4           1.3710    -2.1910     0.6770 h1         1 8GG       0.057700
     16 H5           3.4020    -1.8880    -0.7040 ho         1 8GG       0.526000
     17 H6           1.8610     0.0310     1.6090 h1         1 8GG       0.061700
     18 H7           4.1810     0.2920     1.3100 ho         1 8GG       0.525000
     19 H8           2.8310     0.6900    -1.2650 h2         1 8GG       0.058700
     20 H9           1.7650     2.7320    -0.3800 ho         1 8GG       0.524000
     21 H10         -3.6150    -1.1660     1.3440 h1         1 8GG       0.055033
     22 H11         -3.1070     0.4180     2.0010 h1         1 8GG       0.055033
     23 H12         -4.4840     0.3210     0.8660 h1         1 8GG       0.055033
@<TRIPOS>BOND
     1     1     3 1   
     2     1     8 1   
     3     2     3 1   
     4     2    10 1   
     5     2    12 1   
     6     2    13 1   
     7     3     4 1   
     8     3    14 1   
     9     4     5 1   
    10     4     6 1   
    11     4    15 1   
    12     5    16 1   
    13     6     7 1   
    14     6     8 1   
    15     6    17 1   
    16     7    18 1   
    17     8     9 1   
    18     8    19 1   
    19     9    20 1   
    20    10    11 1   
    21    11    21 1   
    22    11    22 1   
    23    11    23 1   
@<TRIPOS>SUBSTRUCTURE
     1 8GG         1 TEMP              0 ****  ****    0 ROOT
