@<TRIPOS>MOLECULE
8GG
   23    23     1     0     0
SMALL
abcg2


@<TRIPOS>ATOM
      1 O4           0.8130     0.5250    -0.9680 os         1 8GG      -0.460000
      2 C5          -0.6740    -0.6370     0.5660 c3         1 8GG       0.096600
      3 C4           0.4140    -0.7540    -0.4900 c5         1 8GG       0.178300
      4 C3           1.6890    -1.3960     0.0490 c5         1 8GG       0.150300
      5 O3           2.3800    -1.9680    -1.0320 oh         1 8GG      -0.710000
      6 C2           2.4110    -0.1740     0.6020 c5         1 8GG       0.100300
      7 O2           3.7810    -0.4220     0.7380 oh         1 8GG      -0.718000
      8 C1           2.0540     0.9150    -0.4140 c5         1 8GG       0.353300
      9 O1           1.9680     2.1400     0.2270 oh         1 8GG      -0.724000
     10 SE          -2.0670     0.5850    -0.0700 ss         1 8GG      -0.499000
     11 CS          -3.5200    -0.1080     1.0350 c3         1 8GG       0.093900
     12 H1          -1.1220    -1.6200     0.7320 h1         1 8GG       0.060700
     13 H2          -0.2880    -0.2790     1.5240 h1         1 8GG       0.060700
     14 H3           0.0230    -1.3290    -1.3350 h1         1 8GG       0.099700
     15 H4           1.4760    -2.1370     0.8310 h1         1 8GG       0.057700
     16 H5           3.2770    -2.1750    -0.7480 ho         1 8GG       0.526000
     17 H6           1.9560     0.0940     1.5660 h1         1 8GG       0.061700
     18 H7           4.2030     0.3490     1.1300 ho         1 8GG       0.525000
     19 H8           2.7960     0.9520    -1.2220 h2         1 8GG       0.058700
     20 H9           2.0170     2.8470    -0.4240 ho         1 8GG       0.524000
     21 H10         -3.6840    -1.1670     0.8380 h1         1 8GG       0.055033
     22 H11         -3.3120     0.0370     2.0940 h1         1 8GG       0.055033
     23 H12         -4.4260     0.4410     0.7790 h1         1 8GG       0.055033
@<TRIPOS>BOND
     1     1     3 1   
     2     1     8 1   
     3     2     3 1   
     4     2    10 1   
     5     2    12 1   
     6     2    13 1   
     7     3     4 1   
     8     3    14 1   
     9     4     5 1   
    10     4     6 1   
    11     4    15 1   
    12     5    16 1   
    13     6     7 1   
    14     6     8 1   
    15     6    17 1   
    16     7    18 1   
    17     8     9 1   
    18     8    19 1   
    19     9    20 1   
    20    10    11 1   
    21    11    21 1   
    22    11    22 1   
    23    11    23 1   
@<TRIPOS>SUBSTRUCTURE
     1 8GG         1 TEMP              0 ****  ****    0 ROOT
