@<TRIPOS>MOLECULE
8GH
   37    39     1     0     0
SMALL
No Charge or Current Charge


@<TRIPOS>ATOM
      1 C2           3.2120     0.5480     1.2300 ca         1 8GH      -0.007500
      2 C3           1.8170     0.6510     1.3700 ca         1 8GH      -0.125000
      3 C4           0.9390     0.1870     0.3600 cp         1 8GH       0.026000
      4 C5           1.5140    -0.3890    -0.8000 ca         1 8GH      -0.125000
      5 C6           2.9070    -0.4980    -0.9490 ca         1 8GH      -0.007500
      6 C17         -5.8410    -1.4390    -0.1920 cc         1 8GH      -0.172000
      7 C16         -6.6430    -1.5680    -1.2890 cd         1 8GH      -0.230000
      8 C1           3.7630    -0.0280     0.0680 ca         1 8GH      -0.274500
      9 C7          -0.5480     0.3000     0.5130 cp         1 8GH      -0.049000
     10 C8          -1.1680     0.1560     1.7790 ca         1 8GH      -0.089500
     11 C9          -2.5620     0.2620     1.9230 ca         1 8GH      -0.100000
     12 C10         -3.3790     0.5110     0.8040 ca         1 8GH      -0.094300
     13 C11         -2.7770     0.6630    -0.4610 ca         1 8GH      -0.100000
     14 C12         -1.3830     0.5560    -0.6030 ca         1 8GH      -0.089500
     15 C13         -4.8940     0.6280     0.9750 c3         1 8GH       0.131900
     16 C15         -6.9240    -0.2730    -1.7660 cd         1 8GH       0.237900
     17 S1           5.5440    -0.1620    -0.1090 sy         1 8GH       1.125600
     18 N13         -5.6770    -0.0610    -0.0690 na         1 8GH       0.124800
     19 N14         -6.3500     0.6650    -1.0380 nc         1 8GH      -0.521800
     20 O18          5.8910    -0.4200    -1.5050 o          1 8GH      -0.543500
     21 O19          6.2200     0.8480     0.7060 o          1 8GH      -0.543500
     22 N20          5.8480    -1.5860     0.6370 n8         1 8GH      -1.004100
     23 H1           3.8580     0.9170     2.0250 ha         1 8GH       0.138000
     24 H2           1.4150     1.1120     2.2680 ha         1 8GH       0.121500
     25 H3           0.8730    -0.7700    -1.5910 ha         1 8GH       0.121500
     26 H4           3.3130    -0.9480    -1.8540 ha         1 8GH       0.138000
     27 H6          -7.0020    -2.4970    -1.7190 ha         1 8GH       0.146000
     28 H7          -0.5650    -0.0530     2.6590 ha         1 8GH       0.119000
     29 H8          -3.0070     0.1440     2.9090 ha         1 8GH       0.121500
     30 H9          -3.3860     0.8690    -1.3380 ha         1 8GH       0.121500
     31 H10         -0.9460     0.6900    -1.5890 ha         1 8GH       0.119000
     32 H11         -5.1890     0.2110     1.9450 h1         1 8GH       0.073700
     33 H12         -5.1700     1.6900     0.9790 h1         1 8GH       0.073700
     34 H13         -7.5300     0.0090    -2.6180 h4         1 8GH       0.038100
     35 H14          4.9410    -2.0430     0.6080 hn         1 8GH       0.473000
     36 H15          6.3860    -2.0670    -0.0800 hn         1 8GH       0.473000
     37 H5          -5.3900    -2.1620     0.4770 h4         1 8GH       0.153000
@<TRIPOS>BOND
     1     1     2 ar  
     2     1     8 ar  
     3     1    23 1   
     4     2     3 ar  
     5     2    24 1   
     6     3     4 ar  
     7     3     9 1   
     8     4     5 ar  
     9     4    25 1   
    10     5     8 ar  
    11     5    26 1   
    12     6     7 2   
    13     6    18 1   
    14     6    37 1   
    15     7    16 1   
    16     7    27 1   
    17     8    17 1   
    18     9    10 ar  
    19     9    14 ar  
    20    10    11 ar  
    21    10    28 1   
    22    11    12 ar  
    23    11    29 1   
    24    12    13 ar  
    25    12    15 1   
    26    13    14 ar  
    27    13    30 1   
    28    14    31 1   
    29    15    18 1   
    30    15    32 1   
    31    15    33 1   
    32    16    19 2   
    33    16    34 1   
    34    17    20 2   
    35    17    21 2   
    36    17    22 1   
    37    18    19 1   
    38    22    35 1   
    39    22    36 1   
@<TRIPOS>SUBSTRUCTURE
     1 8GH         1 TEMP              0 ****  ****    0 ROOT
