@<TRIPOS>MOLECULE
8GH
   37    39     1     0     0
SMALL
bcc


@<TRIPOS>ATOM
      1 C2           3.1040     0.7560     0.8710 ca         1 8GH      -0.025500
      2 C3           1.7370     0.7710     1.0770 ca         1 8GH      -0.143000
      3 C4           0.8850    -0.0350     0.3150 cp         1 8GH       0.026000
      4 C5           1.4440    -0.8600    -0.6610 ca         1 8GH      -0.143000
      5 C6           2.8120    -0.8840    -0.8790 ca         1 8GH      -0.025500
      6 C17         -6.1560    -1.1450    -0.5230 cc         1 8GH      -0.139300
      7 C16         -6.7820    -0.7490    -1.6810 cd         1 8GH      -0.313300
      8 C1           3.6330    -0.0750    -0.1090 ca         1 8GH      -0.274500
      9 C7          -0.5730    -0.0090     0.5340 cp         1 8GH      -0.049000
     10 C8          -1.1050     0.1570     1.8140 ca         1 8GH      -0.107500
     11 C9          -2.4730     0.1780     2.0150 ca         1 8GH      -0.118000
     12 C10         -3.3560     0.0360     0.9480 ca         1 8GH      -0.094300
     13 C11         -2.8320    -0.1270    -0.3290 ca         1 8GH      -0.118000
     14 C12         -1.4600    -0.1500    -0.5310 ca         1 8GH      -0.107500
     15 C13         -4.8380     0.0490     1.2300 c3         1 8GH       0.102600
     16 C15         -6.5930     0.6430    -1.7150 cd         1 8GH       0.303200
     17 S1           5.3780    -0.0660    -0.3900 sy         1 8GH       1.267200
     18 N13         -5.6590    -0.0320     0.0500 na         1 8GH       0.103400
     19 N14         -5.9080     1.0620    -0.6660 nc         1 8GH      -0.521800
     20 O18          5.6410    -0.8480    -1.5910 o          1 8GH      -0.614300
     21 O19          5.8720     1.3030    -0.3410 o          1 8GH      -0.614300
     22 N20          5.9260    -0.7910     0.9890 n8         1 8GH      -0.893700
     23 H1           3.7440     1.3920     1.4670 ha         1 8GH       0.156000
     24 H2           1.3280     1.4350     1.8270 ha         1 8GH       0.139500
     25 H3           0.8100    -1.5100    -1.2480 ha         1 8GH       0.139500
     26 H4           3.2240    -1.5330    -1.6390 ha         1 8GH       0.156000
     27 H6          -7.3030    -1.3680    -2.3920 ha         1 8GH       0.164000
     28 H7          -0.4460     0.2480     2.6690 ha         1 8GH       0.137000
     29 H8          -2.8590     0.3010     3.0210 ha         1 8GH       0.139500
     30 H9          -3.4840    -0.2320    -1.1860 ha         1 8GH       0.139500
     31 H10         -1.0830    -0.2590    -1.5400 ha         1 8GH       0.137000
     32 H11         -5.0970    -0.7890     1.8780 h1         1 8GH       0.073700
     33 H12         -5.1120     0.9580     1.7670 h1         1 8GH       0.073700
     34 H13         -6.9350     1.3480    -2.4570 h4         1 8GH       0.038100
     35 H14          5.7430    -1.7890     1.0080 hn         1 8GH       0.417800
     36 H15          6.9160    -0.6140     1.1340 hn         1 8GH       0.417800
     37 H5          -6.0320    -2.1170    -0.0730 h4         1 8GH       0.171000
@<TRIPOS>BOND
     1     1     2 ar  
     2     1     8 ar  
     3     1    23 1   
     4     2     3 ar  
     5     2    24 1   
     6     3     4 ar  
     7     3     9 1   
     8     4     5 ar  
     9     4    25 1   
    10     5     8 ar  
    11     5    26 1   
    12     6     7 2   
    13     6    18 1   
    14     6    37 1   
    15     7    16 1   
    16     7    27 1   
    17     8    17 1   
    18     9    10 ar  
    19     9    14 ar  
    20    10    11 ar  
    21    10    28 1   
    22    11    12 ar  
    23    11    29 1   
    24    12    13 ar  
    25    12    15 1   
    26    13    14 ar  
    27    13    30 1   
    28    14    31 1   
    29    15    18 1   
    30    15    32 1   
    31    15    33 1   
    32    16    19 2   
    33    16    34 1   
    34    17    20 2   
    35    17    21 2   
    36    17    22 1   
    37    18    19 1   
    38    22    35 1   
    39    22    36 1   
@<TRIPOS>SUBSTRUCTURE
     1 8GH         1 TEMP              0 ****  ****    0 ROOT
