@<TRIPOS>MOLECULE
8GI
   52    55     1     0     0
SMALL
No Charge or Current Charge


@<TRIPOS>ATOM
      1 C10        196.7010   204.4800   119.6270 c5         1 8GI      -0.033100
      2 C13        194.4560   202.1100   117.6040 ca         1 8GI      -0.078300
      3 C15        192.2030   202.2160   116.7940 c5         1 8GI      -0.032600
      4 C17        194.2540   200.7700   116.9490 c5         1 8GI      -0.033100
      5 C20        190.9310   206.8800   121.3930 cc         1 8GI      -0.018000
      6 C21        191.6970   206.1780   122.3520 cc         1 8GI      -0.171300
      7 C22        192.4140   206.8210   123.5140 c3         1 8GI       0.258300
      8 C26        191.6400   204.8590   121.9680 cd         1 8GI       0.186900
      9 O01        189.1560   204.9370   118.4130 o          1 8GI      -0.520000
     10 S02        189.5510   206.2290   118.9850 sy         1 8GI       1.151900
     11 N03        190.7370   206.8460   117.9750 ns         1 8GI      -0.586300
     12 C04        191.9530   206.3140   117.6890 c          1 8GI       0.662100
     13 C06        193.3090   204.2060   118.0740 ca         1 8GI      -0.013000
     14 C07        194.4690   204.6460   118.7520 ca         1 8GI      -0.090800
     15 C08        194.6720   205.9440   119.5010 c5         1 8GI      -0.032600
     16 C09        195.8870   205.5630   120.4270 c5         1 8GI      -0.075400
     17 C11        195.5920   203.8350   118.8400 ca         1 8GI      -0.078300
     18 C12        195.6140   202.5540   118.2630 ca         1 8GI      -0.087000
     19 C14        193.3280   202.9110   117.5200 ca         1 8GI      -0.090800
     20 C16        192.9930   201.0710   116.0540 c5         1 8GI      -0.075400
     21 O18        192.8120   207.0040   117.1670 o          1 8GI      -0.577100
     22 C19        190.4710   205.9520   120.5010 cd         1 8GI      -0.142100
     23 C23        193.4130   205.8520   124.1830 c3         1 8GI      -0.120600
     24 O24        193.1600   207.9330   123.0260 oh         1 8GI      -0.655000
     25 C25        191.3980   207.3520   124.5460 c3         1 8GI      -0.120600
     26 O27        190.8880   204.6810   120.8290 os         1 8GI      -0.162000
     27 O28        188.5940   207.3240   119.1740 o          1 8GI      -0.520000
     28 H1         197.2240   203.7810   120.2900 hc         1 8GI       0.052950
     29 H2         197.4470   204.9380   118.9670 hc         1 8GI       0.052950
     30 H3         191.6710   202.8680   116.0910 hc         1 8GI       0.059450
     31 H4         191.4660   201.8100   117.4960 hc         1 8GI       0.059450
     32 H5         194.0460   199.9900   117.6910 hc         1 8GI       0.052950
     33 H6         195.1160   200.4450   116.3560 hc         1 8GI       0.052950
     34 H7         190.7780   207.9560   121.3650 ha         1 8GI       0.160000
     35 H8         192.0860   203.9760   122.4070 h4         1 8GI       0.062100
     36 H9         190.5920   207.8240   117.7950 hn         1 8GI       0.351500
     37 H10        191.2930   204.4940   118.3090 hn         1 8GI       0.184000
     38 H11        194.9340   206.7630   118.8230 hc         1 8GI       0.059450
     39 H12        193.7970   206.2550   120.0820 hc         1 8GI       0.059450
     40 H13        195.5190   205.1340   121.3660 hc         1 8GI       0.045200
     41 H14        196.4970   206.4330   120.6960 hc         1 8GI       0.045200
     42 H15        196.4940   201.9190   118.3400 ha         1 8GI       0.117000
     43 H16        193.3150   201.4210   115.0660 hc         1 8GI       0.045200
     44 H17        192.3780   200.1800   115.8860 hc         1 8GI       0.045200
     45 H18        193.9560   206.3440   124.9980 hc         1 8GI       0.045533
     46 H19        192.8910   204.9840   124.6040 hc         1 8GI       0.045533
     47 H20        194.1490   205.4880   123.4560 hc         1 8GI       0.045533
     48 H21        193.6100   208.3300   123.8010 ho         1 8GI       0.445000
     49 H22        191.9060   207.8300   125.3920 hc         1 8GI       0.045533
     50 H23        190.7250   208.0890   124.0910 hc         1 8GI       0.045533
     51 H24        190.7850   206.5310   124.9380 hc         1 8GI       0.045533
     52 N05        192.1270   204.9810   118.0110 ns         1 8GI      -0.168000
@<TRIPOS>BOND
     1     1    16 1   
     2     1    17 1   
     3     1    28 1   
     4     1    29 1   
     5     2     4 1   
     6     2    18 ar  
     7     2    19 ar  
     8     3    19 1   
     9     3    20 1   
    10     3    30 1   
    11     3    31 1   
    12     4    20 1   
    13     4    32 1   
    14     4    33 1   
    15     5     6 1   
    16     5    22 2   
    17     5    34 1   
    18     6     7 1   
    19     6     8 2   
    20     7    23 1   
    21     7    24 1   
    22     7    25 1   
    23     8    26 1   
    24     8    35 1   
    25     9    10 2   
    26    10    11 1   
    27    10    22 1   
    28    10    27 2   
    29    11    12 1   
    30    11    36 1   
    31    12    21 2   
    32    12    52 1   
    33    13    14 ar  
    34    13    19 ar  
    35    13    52 1   
    36    14    15 1   
    37    14    17 ar  
    38    15    16 1   
    39    15    38 1   
    40    15    39 1   
    41    16    40 1   
    42    16    41 1   
    43    17    18 ar  
    44    18    42 1   
    45    20    43 1   
    46    20    44 1   
    47    22    26 1   
    48    23    45 1   
    49    23    46 1   
    50    23    47 1   
    51    24    48 1   
    52    25    49 1   
    53    25    50 1   
    54    25    51 1   
    55    37    52 1   
@<TRIPOS>SUBSTRUCTURE
     1 8GI         1 TEMP              0 ****  ****    0 ROOT
