@<TRIPOS>MOLECULE
8GI
   52    55     1     0     0
SMALL
abcg2


@<TRIPOS>ATOM
      1 C10        196.4590   204.2300   119.8670 c5         1 8GI      -0.033100
      2 C13        194.6130   202.1760   117.2160 ca         1 8GI      -0.078300
      3 C15        192.4180   202.2560   116.2880 c5         1 8GI      -0.032600
      4 C17        194.5380   201.0410   116.2310 c5         1 8GI      -0.033100
      5 C20        191.0420   206.9820   121.4140 cc         1 8GI      -0.018000
      6 C21        191.7320   206.4260   122.5310 cc         1 8GI      -0.171300
      7 C22        192.5800   207.1930   123.5040 c3         1 8GI       0.258300
      8 C26        191.4730   205.0930   122.4940 cd         1 8GI       0.186900
      9 O01        189.1410   204.4750   119.1310 o          1 8GI      -0.520000
     10 S02        189.4740   205.8670   119.3510 sy         1 8GI       1.151900
     11 N03        190.4990   206.3760   118.1390 ns         1 8GI      -0.586300
     12 C04        191.7930   205.8840   117.9010 c          1 8GI       0.662100
     13 C06        193.2220   203.9390   118.1100 ca         1 8GI      -0.013000
     14 C07        194.2790   204.3250   118.9270 ca         1 8GI      -0.090800
     15 C08        194.3450   205.4360   119.9340 c5         1 8GI      -0.032600
     16 C09        195.5460   205.0360   120.8040 c5         1 8GI      -0.075400
     17 C11        195.4880   203.6330   118.8830 ca         1 8GI      -0.078300
     18 C12        195.6710   202.5530   118.0320 ca         1 8GI      -0.087000
     19 C14        193.4020   202.8620   117.2500 ca         1 8GI      -0.090800
     20 C16        193.3170   201.4080   115.3730 c5         1 8GI      -0.075400
     21 O18        192.6490   206.6240   117.4710 o          1 8GI      -0.577100
     22 C19        190.4410   205.9340   120.8040 cd         1 8GI      -0.142100
     23 C23        193.4110   206.2510   124.3700 c3         1 8GI      -0.120600
     24 O24        193.4200   207.9980   122.6920 oh         1 8GI      -0.655000
     25 C25        191.6860   208.0690   124.3830 c3         1 8GI      -0.120600
     26 O27        190.6890   204.7820   121.4470 os         1 8GI      -0.162000
     27 O28        188.4450   206.8810   119.4100 o          1 8GI      -0.520000
     28 H1         197.0540   203.4800   120.3900 hc         1 8GI       0.052950
     29 H2         197.1640   204.8890   119.3490 hc         1 8GI       0.052950
     30 H3         191.8400   203.0010   115.7380 hc         1 8GI       0.059450
     31 H4         191.6950   201.6290   116.8210 hc         1 8GI       0.059450
     32 H5         194.3770   200.0960   116.7590 hc         1 8GI       0.052950
     33 H6         195.4500   200.9230   115.6440 hc         1 8GI       0.052950
     34 H7         191.0150   208.0140   121.1020 ha         1 8GI       0.160000
     35 H8         191.7690   204.2700   123.1260 h4         1 8GI       0.062100
     36 H9         190.3870   207.3590   117.9070 hn         1 8GI       0.351500
     37 H10        191.1490   203.9770   118.2390 hn         1 8GI       0.184000
     38 H11        194.5260   206.3910   119.4330 hc         1 8GI       0.059450
     39 H12        193.4260   205.5520   120.5080 hc         1 8GI       0.059450
     40 H13        195.2040   204.3960   121.6210 hc         1 8GI       0.045200
     41 H14        196.0460   205.8950   121.2510 hc         1 8GI       0.045200
     42 H15        196.6110   202.0130   118.0100 ha         1 8GI       0.117000
     43 H16        193.6400   202.0130   114.5230 hc         1 8GI       0.045200
     44 H17        192.8030   200.5340   114.9730 hc         1 8GI       0.045200
     45 H18        194.0430   206.8270   125.0480 hc         1 8GI       0.045533
     46 H19        192.7770   205.6090   124.9840 hc         1 8GI       0.045533
     47 H20        194.0550   205.6160   123.7600 hc         1 8GI       0.045533
     48 H21        193.9380   208.5690   123.2720 ho         1 8GI       0.445000
     49 H22        192.2930   208.6640   125.0700 hc         1 8GI       0.045533
     50 H23        191.0850   208.7510   123.7800 hc         1 8GI       0.045533
     51 H24        191.0090   207.4590   124.9820 hc         1 8GI       0.045533
     52 N05        191.9620   204.5750   118.1880 ns         1 8GI      -0.168000
@<TRIPOS>BOND
     1     1    16 1   
     2     1    17 1   
     3     1    28 1   
     4     1    29 1   
     5     2     4 1   
     6     2    18 ar  
     7     2    19 ar  
     8     3    19 1   
     9     3    20 1   
    10     3    30 1   
    11     3    31 1   
    12     4    20 1   
    13     4    32 1   
    14     4    33 1   
    15     5     6 1   
    16     5    22 2   
    17     5    34 1   
    18     6     7 1   
    19     6     8 2   
    20     7    23 1   
    21     7    24 1   
    22     7    25 1   
    23     8    26 1   
    24     8    35 1   
    25     9    10 2   
    26    10    11 1   
    27    10    22 1   
    28    10    27 2   
    29    11    12 1   
    30    11    36 1   
    31    12    21 2   
    32    12    52 1   
    33    13    14 ar  
    34    13    19 ar  
    35    13    52 1   
    36    14    15 1   
    37    14    17 ar  
    38    15    16 1   
    39    15    38 1   
    40    15    39 1   
    41    16    40 1   
    42    16    41 1   
    43    17    18 ar  
    44    18    42 1   
    45    20    43 1   
    46    20    44 1   
    47    22    26 1   
    48    23    45 1   
    49    23    46 1   
    50    23    47 1   
    51    24    48 1   
    52    25    49 1   
    53    25    50 1   
    54    25    51 1   
    55    37    52 1   
@<TRIPOS>SUBSTRUCTURE
     1 8GI         1 TEMP              0 ****  ****    0 ROOT
