@<TRIPOS>MOLECULE
8GJ
   49    50     1     0     0
SMALL
No Charge or Current Charge


@<TRIPOS>ATOM
      1 C10         -2.6320    -0.3480    -0.0100 cc         1 8GJ       0.085800
      2 C15          2.4800     0.1680     0.1680 c3         1 8GJ      -0.081400
      3 C17          4.4360    -0.8350     1.5080 c3         1 8GJ      -0.097100
      4 C26         -0.5590    -0.8750     1.3100 c          1 8GJ       0.553200
      5 C28         -1.9990    -0.5990     1.1900 cd         1 8GJ      -0.303200
      6 C01         -8.7200     2.0570    -0.9040 c3         1 8GJ       0.146900
      7 C03         -6.8090     0.7670    -0.0240 ca         1 8GJ       0.181100
      8 C04         -5.9040     1.3290    -0.9430 ca         1 8GJ      -0.221000
      9 C05         -4.5510     0.9490    -0.9270 ca         1 8GJ      -0.029000
     10 C06         -4.0650     0.0110     0.0120 ca         1 8GJ      -0.146800
     11 C07         -4.9990    -0.5570     0.9190 ca         1 8GJ       0.231000
     12 C09         -6.3490    -0.1780     0.8970 ca         1 8GJ      -0.200000
     13 C11         -1.8010    -0.2620    -1.1760 cc         1 8GJ      -0.287000
     14 C12         -0.4490    -0.5200    -1.1080 cd         1 8GJ      -0.036400
     15 C16          4.0490     0.0010     0.2320 c3         1 8GJ      -0.301000
     16 C18          4.6870     1.4110     0.2340 c          1 8GJ       0.622100
     17 F08         -4.6420    -1.5380     1.7780 f          1 8GJ      -0.167000
     18 N13          0.1700    -0.8370     0.0980 n          1 8GJ      -0.274000
     19 N20          5.5820     1.7030     1.2600 ns         1 8GJ      -0.357400
     20 O02         -8.1480     1.0990     0.0040 os         1 8GJ      -0.333100
     21 O19          4.3880     2.2600    -0.5950 o          1 8GJ      -0.588100
     22 O21          6.0090     3.0650     1.5170 oh         1 8GJ      -0.417100
     23 O27         -0.0400    -1.1080     2.3940 o          1 8GJ      -0.565000
     24 S22          4.7480    -0.8390    -1.2380 s6         1 8GJ       1.060000
     25 H1           2.2030     0.7910    -0.6910 hc         1 8GJ       0.075700
     26 H2           2.1630     0.7400     1.0500 hc         1 8GJ       0.075700
     27 H3           4.0170    -1.8480     1.4710 hc         1 8GJ       0.066700
     28 H4           5.5240    -0.9570     1.6020 hc         1 8GJ       0.066700
     29 H5           4.0590    -0.3620     2.4240 hc         1 8GJ       0.066700
     30 H6          -2.5060    -0.5780     2.1440 ha         1 8GJ       0.217000
     31 H7          -9.7930     2.1720    -0.7090 h1         1 8GJ       0.045367
     32 H8          -8.2460     3.0390    -0.7850 h1         1 8GJ       0.045367
     33 H9          -8.5970     1.7300    -1.9450 h1         1 8GJ       0.045367
     34 H10         -6.2280     2.0640    -1.6750 ha         1 8GJ       0.124000
     35 H11         -3.8760     1.4210    -1.6370 ha         1 8GJ       0.119000
     36 H12         -7.0460    -0.6340     1.5940 ha         1 8GJ       0.149000
     37 H13         -2.2510    -0.0230    -2.1350 ha         1 8GJ       0.201000
     38 H14          0.2210    -0.4940    -1.9640 h4         1 8GJ       0.196000
     39 H15          1.8670    -1.7040    -0.7780 h1         1 8GJ       0.076200
     40 H16          1.8560    -1.7640     0.9820 h1         1 8GJ       0.076200
     41 H17          4.2440     0.9590    -2.7190 h1         1 8GJ       0.110700
     42 H18          4.4140    -0.6190    -3.5650 h1         1 8GJ       0.110700
     43 H19          2.9130    -0.2640    -2.6390 h1         1 8GJ       0.110700
     44 H20          5.6840     1.0500     2.0340 hn         1 8GJ       0.353500
     45 H21          6.9920     2.9980     1.5550 ho         1 8GJ       0.452000
     46 C14          1.6240    -1.1250     0.1210 c3         1 8GJ       0.083000
     47 C23          3.9940    -0.1050    -2.6940 c3         1 8GJ      -0.318100
     48 O24          6.1850    -0.5430    -1.2870 o          1 8GJ      -0.512500
     49 O25          4.3210    -2.2430    -1.2040 o          1 8GJ      -0.512500
@<TRIPOS>BOND
     1     1     5 2   
     2     1    10 1   
     3     1    13 1   
     4     2    15 1   
     5     2    25 1   
     6     2    26 1   
     7     2    46 1   
     8     3    15 1   
     9     3    27 1   
    10     3    28 1   
    11     3    29 1   
    12     4     5 1   
    13     4    18 1   
    14     4    23 2   
    15     5    30 1   
    16     6    20 1   
    17     6    31 1   
    18     6    32 1   
    19     6    33 1   
    20     7     8 ar  
    21     7    12 ar  
    22     7    20 1   
    23     8     9 ar  
    24     8    34 1   
    25     9    10 ar  
    26     9    35 1   
    27    10    11 ar  
    28    11    12 ar  
    29    11    17 1   
    30    12    36 1   
    31    13    14 2   
    32    13    37 1   
    33    14    18 1   
    34    14    38 1   
    35    15    16 1   
    36    15    24 1   
    37    16    19 1   
    38    16    21 2   
    39    18    46 1   
    40    19    22 1   
    41    19    44 1   
    42    22    45 1   
    43    24    47 1   
    44    24    48 2   
    45    24    49 2   
    46    39    46 1   
    47    40    46 1   
    48    41    47 1   
    49    42    47 1   
    50    43    47 1   
@<TRIPOS>SUBSTRUCTURE
     1 8GJ         1 TEMP              0 ****  ****    0 ROOT
