@<TRIPOS>MOLECULE
8GJ
   49    50     1     0     0
SMALL
abcg2


@<TRIPOS>ATOM
      1 C10         -2.5280    -0.2290     0.0350 cc         1 8GJ       0.085800
      2 C15          2.4050     0.1750     0.0620 c3         1 8GJ      -0.081400
      3 C17          4.1980    -0.8180     1.5520 c3         1 8GJ      -0.097100
      4 C26         -0.4200    -0.7290     1.1950 c          1 8GJ       0.553200
      5 C28         -1.8250    -0.4340     1.1880 cd         1 8GJ      -0.303200
      6 C01         -8.5700     1.9950    -0.7820 c3         1 8GJ       0.146900
      7 C03         -6.7120     0.7480    -0.0020 ca         1 8GJ       0.181100
      8 C04         -5.8150     1.4340    -0.8200 ca         1 8GJ      -0.221000
      9 C05         -4.4720     1.0940    -0.7920 ca         1 8GJ      -0.029000
     10 C06         -3.9660     0.0970     0.0380 ca         1 8GJ      -0.146800
     11 C07         -4.8970    -0.5650     0.8350 ca         1 8GJ       0.231000
     12 C09         -6.2400    -0.2680     0.8320 ca         1 8GJ      -0.200000
     13 C11         -1.8410    -0.3050    -1.2070 cc         1 8GJ      -0.287000
     14 C12         -0.5180    -0.5950    -1.2050 cd         1 8GJ      -0.036400
     15 C16          3.9120     0.0120     0.3020 c3         1 8GJ      -0.301000
     16 C18          4.5350     1.4180     0.2940 c          1 8GJ       0.622100
     17 F08         -4.4870    -1.5610     1.6310 f          1 8GJ      -0.167000
     18 N13          0.1730    -0.8150    -0.0610 n          1 8GJ      -0.274000
     19 N20          5.2680     1.7310     1.3670 ns         1 8GJ      -0.357400
     20 O02         -8.0280     0.9860     0.0510 os         1 8GJ      -0.333100
     21 O19          4.3610     2.1730    -0.6440 o          1 8GJ      -0.588100
     22 O21          5.7390     2.9980     1.5030 oh         1 8GJ      -0.417100
     23 O27          0.2520    -0.8970     2.2100 o          1 8GJ      -0.565000
     24 S22          4.7510    -0.8770    -1.0770 s6         1 8GJ       1.060000
     25 H1           2.2290     0.8410    -0.7830 hc         1 8GJ       0.075700
     26 H2           2.0220     0.6930     0.9450 hc         1 8GJ       0.075700
     27 H3           3.7800    -1.8170     1.4670 hc         1 8GJ       0.066700
     28 H4           5.2630    -0.9320     1.7520 hc         1 8GJ       0.066700
     29 H5           3.7250    -0.3490     2.4160 hc         1 8GJ       0.066700
     30 H6          -2.2920    -0.3490     2.1590 ha         1 8GJ       0.217000
     31 H7          -9.6390     2.0140    -0.5850 h1         1 8GJ       0.045367
     32 H8          -8.1510     2.9780    -0.5550 h1         1 8GJ       0.045367
     33 H9          -8.4100     1.7760    -1.8410 h1         1 8GJ       0.045367
     34 H10         -6.1400     2.2310    -1.4740 ha         1 8GJ       0.124000
     35 H11         -3.7900     1.6430    -1.4290 ha         1 8GJ       0.119000
     36 H12         -6.9220    -0.8220     1.4650 ha         1 8GJ       0.149000
     37 H13         -2.3510    -0.1620    -2.1470 ha         1 8GJ       0.201000
     38 H14          0.0460    -0.6800    -2.1230 h4         1 8GJ       0.196000
     39 H15          1.7900    -1.5690    -1.0970 h1         1 8GJ       0.076200
     40 H16          1.8250    -1.8550     0.6290 h1         1 8GJ       0.076200
     41 H17          4.3890     0.8300    -2.7040 h1         1 8GJ       0.110700
     42 H18          4.6580    -0.7960    -3.3930 h1         1 8GJ       0.110700
     43 H19          3.0760    -0.3810    -2.7030 h1         1 8GJ       0.110700
     44 H20          5.3320     1.1650     2.1990 hn         1 8GJ       0.353500
     45 H21          6.6440     2.9900     1.1620 ho         1 8GJ       0.452000
     46 C14          1.5990    -1.1100    -0.1290 c3         1 8GJ       0.083000
     47 C23          4.1480    -0.2240    -2.6190 c3         1 8GJ      -0.318100
     48 O24          6.1770    -0.5750    -0.9630 o          1 8GJ      -0.512500
     49 O25          4.3390    -2.2810    -1.0080 o          1 8GJ      -0.512500
@<TRIPOS>BOND
     1     1     5 2   
     2     1    10 1   
     3     1    13 1   
     4     2    15 1   
     5     2    25 1   
     6     2    26 1   
     7     2    46 1   
     8     3    15 1   
     9     3    27 1   
    10     3    28 1   
    11     3    29 1   
    12     4     5 1   
    13     4    18 1   
    14     4    23 2   
    15     5    30 1   
    16     6    20 1   
    17     6    31 1   
    18     6    32 1   
    19     6    33 1   
    20     7     8 ar  
    21     7    12 ar  
    22     7    20 1   
    23     8     9 ar  
    24     8    34 1   
    25     9    10 ar  
    26     9    35 1   
    27    10    11 ar  
    28    11    12 ar  
    29    11    17 1   
    30    12    36 1   
    31    13    14 2   
    32    13    37 1   
    33    14    18 1   
    34    14    38 1   
    35    15    16 1   
    36    15    24 1   
    37    16    19 1   
    38    16    21 2   
    39    18    46 1   
    40    19    22 1   
    41    19    44 1   
    42    22    45 1   
    43    24    47 1   
    44    24    48 2   
    45    24    49 2   
    46    39    46 1   
    47    40    46 1   
    48    41    47 1   
    49    42    47 1   
    50    43    47 1   
@<TRIPOS>SUBSTRUCTURE
     1 8GJ         1 TEMP              0 ****  ****    0 ROOT
