@<TRIPOS>MOLECULE
8GK
   23    24     1     0     0
SMALL
No Charge or Current Charge


@<TRIPOS>ATOM
      1 C1          -1.8980    -0.3250    -0.3660 c          1 8GK       0.617700
      2 C2          -0.6080     0.4590    -0.2070 ca         1 8GK      -0.139600
      3 C3           0.6730    -0.1630    -0.0850 ca         1 8GK       0.001000
      4 C4           1.8360     0.6480     0.0050 ca         1 8GK      -0.044000
      5 C5           1.7330     2.0490    -0.0120 ca         1 8GK      -0.075000
      6 C6           0.4780     2.6590    -0.1120 ca         1 8GK      -0.120000
      7 C7          -0.6790     1.8740    -0.2090 ca         1 8GK      -0.081000
      8 C8           3.1120     0.0630     0.1230 ca         1 8GK      -0.100000
      9 C9           3.2500    -1.3320     0.1680 ca         1 8GK      -0.103000
     10 C10          2.1110    -2.1450     0.1060 ca         1 8GK      -0.102000
     11 C11          0.8350    -1.5690    -0.0140 ca         1 8GK      -0.093000
     12 O12         -1.9900    -1.3360    -1.0510 o          1 8GK      -0.564100
     13 N13         -3.0130     0.2290     0.2580 ns         1 8GK      -0.391400
     14 O14         -4.3550    -0.2240    -0.0540 oh         1 8GK      -0.419100
     15 H1           2.6250     2.6670     0.0590 ha         1 8GK       0.117000
     16 H2           0.4020     3.7440    -0.1270 ha         1 8GK       0.119000
     17 H3          -1.6340     2.3820    -0.3220 ha         1 8GK       0.117000
     18 H4           3.9990     0.6890     0.1860 ha         1 8GK       0.114000
     19 H5           4.2370    -1.7800     0.2620 ha         1 8GK       0.116000
     20 H6           2.2150    -3.2270     0.1560 ha         1 8GK       0.116000
     21 H7          -0.0150    -2.2430    -0.0330 ha         1 8GK       0.130000
     22 H8          -2.9360     1.1410     0.7050 hn         1 8GK       0.341500
     23 H9          -4.7490    -0.4110     0.8310 ho         1 8GK       0.442000
@<TRIPOS>BOND
     1     1     2 1   
     2     1    12 2   
     3     1    13 1   
     4     2     3 ar  
     5     2     7 ar  
     6     3     4 ar  
     7     3    11 ar  
     8     4     5 ar  
     9     4     8 ar  
    10     5     6 ar  
    11     5    15 1   
    12     6     7 ar  
    13     6    16 1   
    14     7    17 1   
    15     8     9 ar  
    16     8    18 1   
    17     9    10 ar  
    18     9    19 1   
    19    10    11 ar  
    20    10    20 1   
    21    11    21 1   
    22    13    14 1   
    23    13    22 1   
    24    14    23 1   
@<TRIPOS>SUBSTRUCTURE
     1 8GK         1 TEMP              0 ****  ****    0 ROOT
