@<TRIPOS>MOLECULE
8GK
   23    24     1     0     0
SMALL
bcc


@<TRIPOS>ATOM
      1 C1          -1.8970    -0.1830    -0.4870 c          1 8GK       0.684700
      2 C2          -0.6240     0.5750    -0.2820 ca         1 8GK      -0.139600
      3 C3           0.6140    -0.1080    -0.1080 ca         1 8GK       0.001000
      4 C4           1.8010     0.6660     0.0010 ca         1 8GK      -0.044000
      5 C5           1.7270     2.0770    -0.0740 ca         1 8GK      -0.093000
      6 C6           0.5260     2.7050    -0.2370 ca         1 8GK      -0.138000
      7 C7          -0.6560     1.9470    -0.3370 ca         1 8GK      -0.099000
      8 C8           3.0430     0.0160     0.1920 ca         1 8GK      -0.118000
      9 C9           3.1130    -1.3460     0.2820 ca         1 8GK      -0.121000
     10 C10          1.9370    -2.1160     0.1860 ca         1 8GK      -0.120000
     11 C11          0.7210    -1.5170    -0.0050 ca         1 8GK      -0.111000
     12 O12         -2.0320    -1.0410    -1.3420 o          1 8GK      -0.564100
     13 N13         -2.8650     0.1800     0.3710 ns         1 8GK      -0.458400
     14 O14         -4.1400    -0.2550     0.1890 oh         1 8GK      -0.380100
     15 H1           2.6410     2.6530     0.0040 ha         1 8GK       0.135000
     16 H2           0.4730     3.7840    -0.2930 ha         1 8GK       0.137000
     17 H3          -1.5950     2.4640    -0.4860 ha         1 8GK       0.135000
     18 H4           3.9390     0.6200     0.2730 ha         1 8GK       0.132000
     19 H5           4.0660    -1.8360     0.4320 ha         1 8GK       0.134000
     20 H6           1.9960    -3.1940     0.2630 ha         1 8GK       0.134000
     21 H7          -0.1620    -2.1360    -0.0770 ha         1 8GK       0.148000
     22 H8          -2.7500     0.9240     1.0440 hn         1 8GK       0.341500
     23 H9          -4.2460    -1.0300     0.7570 ho         1 8GK       0.403000
@<TRIPOS>BOND
     1     1     2 1   
     2     1    12 2   
     3     1    13 1   
     4     2     3 ar  
     5     2     7 ar  
     6     3     4 ar  
     7     3    11 ar  
     8     4     5 ar  
     9     4     8 ar  
    10     5     6 ar  
    11     5    15 1   
    12     6     7 ar  
    13     6    16 1   
    14     7    17 1   
    15     8     9 ar  
    16     8    18 1   
    17     9    10 ar  
    18     9    19 1   
    19    10    11 ar  
    20    10    20 1   
    21    11    21 1   
    22    13    14 1   
    23    13    22 1   
    24    14    23 1   
@<TRIPOS>SUBSTRUCTURE
     1 8GK         1 TEMP              0 ****  ****    0 ROOT
