@<TRIPOS>MOLECULE
8GL
   18    17     1     0     0
SMALL
No Charge or Current Charge


@<TRIPOS>ATOM
      1 N01         -1.1780    -0.9230     1.5910 n8         1 8GL      -1.005200
      2 C02         -1.0470    -0.4980     0.1870 c3         1 8GL       0.248200
      3 O03         -1.0690    -1.7570    -0.4720 oh         1 8GL      -0.696000
      4 C04          0.3220     0.2160    -0.0710 c3         1 8GL      -0.034400
      5 C05          1.6180    -0.5760     0.2820 c3         1 8GL      -0.189400
      6 C06          2.8550     0.2740    -0.0540 c          1 8GL       0.708000
      7 O07          3.2910     1.0270     0.8030 o          1 8GL      -0.772000
      8 O08          3.3220     0.1980    -1.1800 o          1 8GL      -0.772000
      9 C09         -2.2410     0.4450    -0.3700 c          1 8GL       0.661000
     10 O10         -2.7900     0.1100    -1.4150 o          1 8GL      -0.738500
     11 O11         -2.6400     1.3780     0.3190 o          1 8GL      -0.738500
     12 H1          -1.4140    -0.0900     2.1390 hn         1 8GL       0.371500
     13 H2          -2.0180    -1.5020     1.6550 hn         1 8GL       0.371500
     14 H4          -1.6620    -1.5990    -1.2440 ho         1 8GL       0.459000
     15 H5           0.3670     0.4920    -1.1320 hc         1 8GL       0.039200
     16 H6           0.3290     1.1630     0.4830 hc         1 8GL       0.039200
     17 H7           1.5790    -0.7730     1.3590 hc         1 8GL       0.023200
     18 H8           1.6060    -1.4820    -0.3360 hc         1 8GL       0.023200
@<TRIPOS>BOND
     1     1     2 1   
     2     1    12 1   
     3     1    13 1   
     4     2     3 1   
     5     2     4 1   
     6     2     9 1   
     7     3    14 1   
     8     4     5 1   
     9     4    15 1   
    10     4    16 1   
    11     5     6 1   
    12     5    17 1   
    13     5    18 1   
    14     6     7 1   
    15     6     8 1   
    16     9    10 1   
    17     9    11 1   
@<TRIPOS>SUBSTRUCTURE
     1 8GL         1 TEMP              0 ****  ****    0 ROOT
