@<TRIPOS>MOLECULE
8GL
   18    17     1     0     0
SMALL
bcc


@<TRIPOS>ATOM
      1 N01         -1.0820    -1.0650     1.4670 n8         1 8GL      -0.894800
      2 C02         -1.0260    -0.5120     0.1160 c3         1 8GL       0.225000
      3 O03         -1.0690    -1.5740    -0.7980 oh         1 8GL      -0.633800
      4 C04          0.2680     0.2910    -0.0420 c3         1 8GL      -0.034400
      5 C05          1.5360    -0.5300     0.1160 c3         1 8GL      -0.189400
      6 C06          2.8530     0.2550    -0.0070 c          1 8GL       0.918600
      7 O07          2.7930     1.4840    -0.2100 o          1 8GL      -0.877300
      8 O08          3.9020    -0.4170     0.1120 o          1 8GL      -0.877300
      9 C09         -2.2500     0.4070    -0.1750 c          1 8GL       0.871600
     10 O10         -2.9840     0.0360    -1.1230 o          1 8GL      -0.843800
     11 O11         -2.4100     1.4050     0.5450 o          1 8GL      -0.843800
     12 H1          -1.0490    -0.3020     2.1320 hn         1 8GL       0.316300
     13 H2          -1.9820    -1.5120     1.6130 hn         1 8GL       0.316300
     14 H4          -1.8720    -1.3660    -1.3150 ho         1 8GL       0.420000
     15 H5           0.2570     0.7650    -1.0280 hc         1 8GL       0.039200
     16 H6           0.2610     1.1120     0.6800 hc         1 8GL       0.039200
     17 H7           1.5320    -1.0380     1.0850 hc         1 8GL       0.023200
     18 H8           1.5530    -1.3350    -0.6250 hc         1 8GL       0.023200
@<TRIPOS>BOND
     1     1     2 1   
     2     1    12 1   
     3     1    13 1   
     4     2     3 1   
     5     2     4 1   
     6     2     9 1   
     7     3    14 1   
     8     4     5 1   
     9     4    15 1   
    10     4    16 1   
    11     5     6 1   
    12     5    17 1   
    13     5    18 1   
    14     6     7 1   
    15     6     8 1   
    16     9    10 1   
    17     9    11 1   
@<TRIPOS>SUBSTRUCTURE
     1 8GL         1 TEMP              0 ****  ****    0 ROOT
