@<TRIPOS>MOLECULE
8GN
   63    67     1     0     0
SMALL
No Charge or Current Charge


@<TRIPOS>ATOM
      1 C1          -2.5170     3.3970     1.3430 c          1 8GN       0.611100
      2 C2          -1.8420     1.3910    -0.1220 ca         1 8GN       0.029000
      3 C3          -0.4360     1.5370    -0.1060 ca         1 8GN      -0.204000
      4 N6           5.9420    -2.5660     0.0470 nc         1 8GN      -0.615100
      5 C7          -2.4210     0.3020    -0.8210 ca         1 8GN       0.149000
      6 C8          -4.5990    -0.0170    -2.1140 c5         1 8GN       0.179800
      7 C9          -5.7460    -0.9750    -1.6940 c5         1 8GN      -0.086400
      8 C10         -6.0470    -0.4710    -0.2550 c5         1 8GN       0.167500
      9 C11         -4.5900    -0.3980     0.3170 c5         1 8GN       0.177800
     10 C12         -6.9790    -1.2570     1.9410 c3         1 8GN       0.147600
     11 C13         -8.1620    -1.8290    -0.1130 c3         1 8GN       0.147600
     12 C14          2.8230    -0.0200    -0.5590 cc         1 8GN       0.702900
     13 C15          4.1210     0.5580    -0.5930 cc         1 8GN      -0.386000
     14 C16          5.2460    -0.2040    -0.4040 cd         1 8GN       0.437000
     15 C19          5.1580    -3.6270     0.2000 cd         1 8GN       0.460500
     16 C20          2.7140    -4.2600     0.1990 ch         1 8GN       0.351700
     17 C21          6.9500     1.6310    -0.6700 cx         1 8GN       0.147500
     18 C22          8.2250     2.0890    -0.0080 cx         1 8GN      -0.126400
     19 N7           1.8560    -5.0440     0.2980 n1         1 8GN      -0.490000
     20 C18          3.7800    -3.3440     0.0860 cd         1 8GN      -0.263300
     21 N4           5.0060    -1.5580    -0.1760 na         1 8GN       0.038900
     22 N8           6.5290     0.2810    -0.4250 nu         1 8GN      -0.926200
     23 C23          6.8920     2.5950     0.4880 cx         1 8GN      -0.126400
     24 C17          3.6960    -2.0100    -0.1560 cc         1 8GN       0.516500
     25 N5           2.5200    -1.3250    -0.3330 nc         1 8GN      -0.767000
     26 C4           0.3890     0.6100    -0.7600 ca         1 8GN       0.328000
     27 C5          -0.1910    -0.4570    -1.4610 ca         1 8GN      -0.147000
     28 C6          -1.5870    -0.6130    -1.4890 ca         1 8GN      -0.078000
     29 N           -2.7240     2.3110     0.5100 ns         1 8GN      -0.146000
     30 O           -1.4200     3.7800     1.7320 o          1 8GN      -0.596100
     31 C           -3.8020     4.1030     1.7670 c3         1 8GN      -0.181100
     32 N1          -3.8240     0.1210    -0.8530 nh         1 8GN      -0.799400
     33 N2          -6.8410    -1.5160     0.4860 n3         1 8GN      -0.704600
     34 H1           0.0320     2.3680     0.4090 ha         1 8GN       0.144000
     35 H2          -4.0060    -0.4380    -2.9380 h1         1 8GN       0.043200
     36 H3          -4.9910     0.9580    -2.4380 h1         1 8GN       0.043200
     37 H4          -6.6050    -0.8960    -2.3690 hc         1 8GN       0.054200
     38 H5          -5.4090    -2.0180    -1.6990 hc         1 8GN       0.054200
     39 H6          -6.5360     0.5130    -0.2580 h1         1 8GN       0.027700
     40 H7          -4.5320     0.2670     1.1890 h1         1 8GN       0.050200
     41 H8          -4.2240    -1.3920     0.6090 h1         1 8GN       0.050200
     42 H9          -7.5270    -2.0720     2.4320 h1         1 8GN       0.031867
     43 H10         -5.9990    -1.1810     2.4290 h1         1 8GN       0.031867
     44 H11         -7.5260    -0.3210     2.1190 h1         1 8GN       0.031867
     45 H12         -8.8030    -0.9380    -0.1320 h1         1 8GN       0.031867
     46 H13         -8.0590    -2.2020    -1.1400 h1         1 8GN       0.031867
     47 H14         -8.6770    -2.6090     0.4640 h1         1 8GN       0.031867
     48 H15          4.2090     1.6190    -0.7780 ha         1 8GN       0.142000
     49 H16          5.6150    -4.5900     0.3920 h4         1 8GN       0.054800
     50 H17          6.7250     2.0200    -1.6670 h1         1 8GN       0.090700
     51 H18          8.7630     1.3830     0.6190 hc         1 8GN       0.084700
     52 H19          8.8560     2.7810    -0.5590 hc         1 8GN       0.084700
     53 H20          7.2160    -0.4650    -0.2740 hn         1 8GN       0.534000
     54 H21          6.6260     3.6260     0.2710 hc         1 8GN       0.084700
     55 H22          6.5310     2.2230     1.4440 hc         1 8GN       0.084700
     56 H23          2.0470     1.7740    -0.6080 hn         1 8GN       0.502000
     57 H24          0.4380    -1.1650    -1.9910 ha         1 8GN       0.162000
     58 H25         -2.0230    -1.4510    -2.0260 ha         1 8GN       0.121000
     59 H26         -3.6960     2.1250     0.3000 hn         1 8GN       0.181000
     60 H27         -4.4770     3.3710     2.2270 hc         1 8GN       0.063367
     61 H28         -3.6170     4.9550     2.4310 hc         1 8GN       0.063367
     62 H29         -4.3580     4.4000     0.8710 hc         1 8GN       0.063367
     63 N3           1.7680     0.8080    -0.7380 nu         1 8GN      -0.922900
@<TRIPOS>BOND
     1     1    29 1   
     2     1    30 2   
     3     1    31 1   
     4     2     3 ar  
     5     2     5 ar  
     6     2    29 1   
     7     3    26 ar  
     8     3    34 1   
     9     4    15 2   
    10     4    21 1   
    11     5    28 ar  
    12     5    32 1   
    13     6     7 1   
    14     6    32 1   
    15     6    35 1   
    16     6    36 1   
    17     7     8 1   
    18     7    37 1   
    19     7    38 1   
    20     8     9 1   
    21     8    33 1   
    22     8    39 1   
    23     9    32 1   
    24     9    40 1   
    25     9    41 1   
    26    10    33 1   
    27    10    42 1   
    28    10    43 1   
    29    10    44 1   
    30    11    33 1   
    31    11    45 1   
    32    11    46 1   
    33    11    47 1   
    34    12    13 1   
    35    12    25 2   
    36    12    63 1   
    37    13    14 2   
    38    13    48 1   
    39    14    21 1   
    40    14    22 1   
    41    15    20 1   
    42    15    49 1   
    43    16    19 3   
    44    16    20 1   
    45    17    18 1   
    46    17    22 1   
    47    17    23 1   
    48    17    50 1   
    49    18    23 1   
    50    18    51 1   
    51    18    52 1   
    52    20    24 2   
    53    21    24 1   
    54    22    53 1   
    55    23    54 1   
    56    23    55 1   
    57    24    25 1   
    58    26    27 ar  
    59    26    63 1   
    60    27    28 ar  
    61    27    57 1   
    62    28    58 1   
    63    29    59 1   
    64    31    60 1   
    65    31    61 1   
    66    31    62 1   
    67    56    63 1   
@<TRIPOS>SUBSTRUCTURE
     1 8GN         1 TEMP              0 ****  ****    0 ROOT
