@<TRIPOS>MOLECULE
8GN
   63    67     1     0     0
SMALL
bcc


@<TRIPOS>ATOM
      1 C1          -2.5860     3.8120     0.2520 c          1 8GN       0.678100
      2 C2          -1.8710     1.4680    -0.2020 ca         1 8GN       0.121600
      3 C3          -0.4920     1.6100    -0.1390 ca         1 8GN      -0.222000
      4 N6           5.9930    -2.4230    -0.6440 nc         1 8GN      -0.615100
      5 C7          -2.4330     0.2040    -0.4630 ca         1 8GN       0.010600
      6 C8          -4.4300    -0.2570    -1.8110 c5         1 8GN       0.179800
      7 C9          -5.8890    -0.5990    -1.4710 c5         1 8GN      -0.086400
      8 C10         -5.9680    -0.5810     0.0680 c5         1 8GN       0.167500
      9 C11         -4.5040    -0.7070     0.4800 c5         1 8GN       0.177800
     10 C12         -6.7590    -1.6660     2.0560 c3         1 8GN       0.147600
     11 C13         -8.1910    -1.4580     0.1720 c3         1 8GN       0.147600
     12 C14          2.8010    -0.0220    -0.3540 cc         1 8GN       0.768200
     13 C15          4.0690     0.6010    -0.2630 cc         1 8GN      -0.469300
     14 C16          5.2070    -0.1700    -0.3480 cd         1 8GN       0.349300
     15 C19          5.3720    -3.5620    -0.8110 cd         1 8GN       0.460500
     16 C20          2.9810    -4.3970    -0.9580 ch         1 8GN       0.262500
     17 C21          6.8090     1.6320    -0.1990 cx         1 8GN       0.147500
     18 C22          7.9800     2.0100     0.6440 cx         1 8GN      -0.126400
     19 N7           2.1650    -5.2050    -1.0850 n1         1 8GN      -0.400800
     20 C18          3.9680    -3.4140    -0.8050 cd         1 8GN      -0.263300
     21 N4           5.0040    -1.5110    -0.5270 na         1 8GN      -0.011800
     22 N8           6.4700     0.2500    -0.2700 nu         1 8GN      -0.732600
     23 C23          6.5980     2.3610     1.0940 cx         1 8GN      -0.126400
     24 C17          3.7490    -2.0430    -0.6170 cc         1 8GN       0.516500
     25 N5           2.6400    -1.3260    -0.5300 nc         1 8GN      -0.767000
     26 C4           0.3490     0.5070    -0.3300 ca         1 8GN       0.189600
     27 C5          -0.2030    -0.7480    -0.5830 ca         1 8GN      -0.165000
     28 C6          -1.5840    -0.8730    -0.6460 ca         1 8GN      -0.096000
     29 N           -2.7860     2.4980    -0.0180 ns         1 8GN      -0.472100
     30 O           -1.4840     4.3210     0.3720 o          1 8GN      -0.596100
     31 C           -3.8690     4.5930     0.3920 c3         1 8GN      -0.181100
     32 N1          -3.8450     0.1070    -0.5240 nh         1 8GN      -0.661000
     33 N2          -6.8190    -1.6240     0.6090 n3         1 8GN      -0.704600
     34 H1          -0.0570     2.5770     0.0640 ha         1 8GN       0.162000
     35 H2          -3.9290    -1.1270    -2.2560 h1         1 8GN       0.043200
     36 H3          -4.3360     0.5690    -2.5170 h1         1 8GN       0.043200
     37 H4          -6.5880     0.1050    -1.9220 hc         1 8GN       0.054200
     38 H5          -6.1390    -1.5940    -1.8430 hc         1 8GN       0.054200
     39 H6          -6.3210     0.4140     0.3960 h1         1 8GN       0.027700
     40 H7          -4.2900    -0.3220     1.4780 h1         1 8GN       0.050200
     41 H8          -4.1970    -1.7650     0.4470 h1         1 8GN       0.050200
     42 H9          -7.4260    -2.4440     2.4280 h1         1 8GN       0.031867
     43 H10         -5.7530    -1.9120     2.3980 h1         1 8GN       0.031867
     44 H11         -7.0540    -0.7160     2.5310 h1         1 8GN       0.031867
     45 H12         -8.6310    -0.4980     0.4860 h1         1 8GN       0.031867
     46 H13         -8.2640    -1.5180    -0.9140 h1         1 8GN       0.031867
     47 H14         -8.8080    -2.2560     0.5850 h1         1 8GN       0.031867
     48 H15          4.1520     1.6700    -0.1360 ha         1 8GN       0.160000
     49 H16          5.9300    -4.4780    -0.9350 h4         1 8GN       0.054800
     50 H17          6.6500     2.1930    -1.1160 h1         1 8GN       0.090700
     51 H18          8.4940     1.2150     1.1690 hc         1 8GN       0.084700
     52 H19          8.6230     2.7970     0.2740 hc         1 8GN       0.084700
     53 H20          7.1980    -0.4210    -0.4710 hn         1 8GN       0.478800
     54 H21          6.2790     3.3930     1.0360 hc         1 8GN       0.084700
     55 H22          6.1780     1.8030     1.9200 hc         1 8GN       0.084700
     56 H23          1.9270     1.7550    -0.0940 hn         1 8GN       0.446800
     57 H24          0.4250    -1.6110    -0.7290 ha         1 8GN       0.180000
     58 H25         -2.0050    -1.8500    -0.8480 ha         1 8GN       0.139000
     59 H26         -3.7410     2.1630    -0.1040 hn         1 8GN       0.347500
     60 H27         -4.4930     4.1710     1.1810 hc         1 8GN       0.063367
     61 H28         -3.6570     5.6310     0.6290 hc         1 8GN       0.063367
     62 H29         -4.4460     4.5550    -0.5330 hc         1 8GN       0.063367
     63 N3           1.7130     0.7820    -0.2530 nu         1 8GN      -0.729300
@<TRIPOS>BOND
     1     1    29 1   
     2     1    30 2   
     3     1    31 1   
     4     2     3 ar  
     5     2     5 ar  
     6     2    29 1   
     7     3    26 ar  
     8     3    34 1   
     9     4    15 2   
    10     4    21 1   
    11     5    28 ar  
    12     5    32 1   
    13     6     7 1   
    14     6    32 1   
    15     6    35 1   
    16     6    36 1   
    17     7     8 1   
    18     7    37 1   
    19     7    38 1   
    20     8     9 1   
    21     8    33 1   
    22     8    39 1   
    23     9    32 1   
    24     9    40 1   
    25     9    41 1   
    26    10    33 1   
    27    10    42 1   
    28    10    43 1   
    29    10    44 1   
    30    11    33 1   
    31    11    45 1   
    32    11    46 1   
    33    11    47 1   
    34    12    13 1   
    35    12    25 2   
    36    12    63 1   
    37    13    14 2   
    38    13    48 1   
    39    14    21 1   
    40    14    22 1   
    41    15    20 1   
    42    15    49 1   
    43    16    19 3   
    44    16    20 1   
    45    17    18 1   
    46    17    22 1   
    47    17    23 1   
    48    17    50 1   
    49    18    23 1   
    50    18    51 1   
    51    18    52 1   
    52    20    24 2   
    53    21    24 1   
    54    22    53 1   
    55    23    54 1   
    56    23    55 1   
    57    24    25 1   
    58    26    27 ar  
    59    26    63 1   
    60    27    28 ar  
    61    27    57 1   
    62    28    58 1   
    63    29    59 1   
    64    31    60 1   
    65    31    61 1   
    66    31    62 1   
    67    56    63 1   
@<TRIPOS>SUBSTRUCTURE
     1 8GN         1 TEMP              0 ****  ****    0 ROOT
