@<TRIPOS>MOLECULE
8GO
   54    56     1     0     0
SMALL
bcc


@<TRIPOS>ATOM
      1 C1         -22.3210    -1.7020   -22.4500 ca         1 8GO      -0.303300
      2 C4         -24.0990    -3.4030   -23.6130 ca         1 8GO       0.588200
      3 C5         -23.3130    -2.5910   -24.4420 ca         1 8GO      -0.257100
      4 C6         -22.4110    -1.7240   -23.8220 ca         1 8GO      -0.014000
      5 N7         -25.0210    -4.2600   -24.1640 n          1 8GO      -0.435300
      6 C13        -25.8680    -5.0690   -23.2870 c3         1 8GO       0.101000
      7 C14        -24.5240    -3.7180   -27.8900 c6         1 8GO       0.056700
      8 C15        -24.4770    -5.1570   -28.3340 c2         1 8GO      -0.150200
      9 C16        -25.1450    -5.7080   -29.3480 c2         1 8GO      -0.108400
     10 C17        -26.1490    -4.9920   -30.2010 c3         1 8GO      -0.052900
     11 C18        -24.9240    -7.1460   -29.7210 c3         1 8GO      -0.052900
     12 C20        -23.0550    -1.6340   -27.9660 c6         1 8GO       0.178800
     13 C21        -21.7670    -1.0350   -28.5420 c3         1 8GO      -0.075400
     14 C22        -21.6840    -0.8800   -30.0490 c3         1 8GO       0.144400
     15 C23        -24.2280    -0.6630   -28.0000 c3         1 8GO      -0.108100
     16 C19        -23.3870    -2.9750   -28.6020 c6         1 8GO      -0.106400
     17 C9         -24.3710    -3.5660   -26.4000 cc         1 8GO      -0.309400
     18 C8         -25.2500    -4.3240   -25.5320 c          1 8GO       0.727700
     19 O12        -26.1700    -5.0080   -25.9660 o          1 8GO      -0.621500
     20 C25        -27.1130    -4.3290   -22.8300 c3         1 8GO      -0.106100
     21 N3         -24.0080    -3.3740   -22.2860 nb         1 8GO      -0.737000
     22 C2         -23.1460    -2.5540   -21.7080 ca         1 8GO       0.486600
     23 C24        -23.0800    -2.5590   -20.2120 c3         1 8GO      -0.152400
     24 C10        -23.4810    -2.6900   -25.8660 cd         1 8GO       0.248900
     25 O11        -22.7150    -1.8670   -26.5740 os         1 8GO      -0.330900
     26 O26        -22.6130     0.0740   -30.5120 oh         1 8GO      -0.599800
     27 H1         -21.6300    -1.0380   -21.9500 ha         1 8GO       0.145000
     28 H2         -21.7880    -1.0730   -24.4200 ha         1 8GO       0.151000
     29 H3         -26.1390    -5.9700   -23.8310 h1         1 8GO       0.068700
     30 H4         -25.2710    -5.3700   -22.4310 h1         1 8GO       0.068700
     31 H5         -25.4780    -3.2710   -28.1870 hc         1 8GO       0.068700
     32 H6         -23.7560    -5.7750   -27.8040 ha         1 8GO       0.120000
     33 H7         -26.3120    -3.9560   -29.9110 hc         1 8GO       0.037367
     34 H8         -25.8320    -4.9960   -31.2470 hc         1 8GO       0.037367
     35 H9         -27.1150    -5.5040   -30.1710 hc         1 8GO       0.037367
     36 H10        -24.1830    -7.6260   -29.0840 hc         1 8GO       0.037367
     37 H11        -25.8540    -7.7180   -29.6490 hc         1 8GO       0.037367
     38 H12        -24.5870    -7.2350   -30.7570 hc         1 8GO       0.037367
     39 H13        -20.9390    -1.6900   -28.2580 hc         1 8GO       0.062200
     40 H14        -21.5760    -0.0680   -28.0650 hc         1 8GO       0.062200
     41 H15        -21.8330    -1.8530   -30.5320 h1         1 8GO       0.021200
     42 H16        -20.6560    -0.5750   -30.2850 h1         1 8GO       0.021200
     43 H17        -23.9460     0.2960   -27.5640 hc         1 8GO       0.053033
     44 H18        -24.5420    -0.4850   -29.0260 hc         1 8GO       0.053033
     45 H19        -25.0900    -1.0410   -27.4470 hc         1 8GO       0.053033
     46 H20        -23.6630    -2.8330   -29.6480 hc         1 8GO       0.057700
     47 H21        -22.4850    -3.5960   -28.5980 hc         1 8GO       0.057700
     48 H22        -27.7090    -4.9730   -22.1840 hc         1 8GO       0.043033
     49 H23        -26.8550    -3.4330   -22.2650 hc         1 8GO       0.043033
     50 H24        -27.7340    -4.0350   -23.6760 hc         1 8GO       0.043033
     51 H25        -23.7880    -3.2700   -19.7930 hc         1 8GO       0.055700
     52 H26        -22.0780    -2.8220   -19.8690 hc         1 8GO       0.055700
     53 H27        -23.3030    -1.5690   -19.8110 hc         1 8GO       0.055700
     54 H28        -22.5600     0.1000   -31.4720 ho         1 8GO       0.406000
@<TRIPOS>BOND
     1     1     4 ar  
     2     1    22 ar  
     3     1    27 1   
     4     2     3 ar  
     5     2     5 1   
     6     2    21 ar  
     7     3     4 ar  
     8     3    24 1   
     9     4    28 1   
    10     5     6 1   
    11     5    18 1   
    12     6    20 1   
    13     6    29 1   
    14     6    30 1   
    15     7     8 1   
    16     7    16 1   
    17     7    17 1   
    18     7    31 1   
    19     8     9 2   
    20     8    32 1   
    21     9    10 1   
    22     9    11 1   
    23    10    33 1   
    24    10    34 1   
    25    10    35 1   
    26    11    36 1   
    27    11    37 1   
    28    11    38 1   
    29    12    13 1   
    30    12    15 1   
    31    12    16 1   
    32    12    25 1   
    33    13    14 1   
    34    13    39 1   
    35    13    40 1   
    36    14    26 1   
    37    14    41 1   
    38    14    42 1   
    39    15    43 1   
    40    15    44 1   
    41    15    45 1   
    42    16    46 1   
    43    16    47 1   
    44    17    18 1   
    45    17    24 2   
    46    18    19 2   
    47    20    48 1   
    48    20    49 1   
    49    20    50 1   
    50    21    22 ar  
    51    22    23 1   
    52    23    51 1   
    53    23    52 1   
    54    23    53 1   
    55    24    25 1   
    56    26    54 1   
@<TRIPOS>SUBSTRUCTURE
     1 8GO         1 TEMP              0 ****  ****    0 ROOT
