@<TRIPOS>MOLECULE
8GO
   54    56     1     0     0
SMALL
No Charge or Current Charge


@<TRIPOS>ATOM
      1 C1         -22.2150    -1.7380   -22.4350 ca         1 8GO      -0.220000
      2 C4         -24.1000    -3.3980   -23.5610 ca         1 8GO       0.522900
      3 C5         -23.2790    -2.6350   -24.3980 ca         1 8GO      -0.191800
      4 C6         -22.3140    -1.7820   -23.8310 ca         1 8GO       0.004000
      5 N7         -25.1070    -4.2580   -24.1170 n          1 8GO      -0.368300
      6 C13        -25.9820    -5.0570   -23.2070 c3         1 8GO       0.101000
      7 C14        -24.5450    -3.7640   -27.9080 c6         1 8GO       0.056700
      8 C15        -24.5100    -5.2380   -28.3130 c2         1 8GO      -0.200200
      9 C16        -25.1060    -5.7830   -29.3920 c2         1 8GO      -0.108400
     10 C17        -25.9170    -5.0330   -30.4400 c3         1 8GO      -0.052900
     11 C18        -25.0240    -7.2690   -29.6930 c3         1 8GO      -0.052900
     12 C20        -23.0530    -1.6750   -27.9910 c6         1 8GO       0.202000
     13 C21        -21.7610    -1.0320   -28.6000 c3         1 8GO      -0.075400
     14 C22        -21.7530    -0.7110   -30.1150 c3         1 8GO       0.167600
     15 C23        -24.2410    -0.6640   -28.0210 c3         1 8GO      -0.108100
     16 C19        -23.4040    -3.0280   -28.6500 c6         1 8GO      -0.106400
     17 C9         -24.3880    -3.6180   -26.3970 cc         1 8GO      -0.309400
     18 C8         -25.3060    -4.3890   -25.5120 c          1 8GO       0.585200
     19 O12        -26.2060    -5.0900   -25.9560 o          1 8GO      -0.546000
     20 C25        -27.2020    -4.2660   -22.6960 c3         1 8GO      -0.106100
     21 N3         -23.9960    -3.3490   -22.2120 nb         1 8GO      -0.737000
     22 C2         -23.0710    -2.5370   -21.6640 ca         1 8GO       0.421300
     23 C24        -23.0090    -2.5240   -20.1510 c3         1 8GO      -0.152400
     24 C10        -23.4710    -2.7660   -25.8290 cd         1 8GO       0.248900
     25 O11        -22.7420    -1.8980   -26.6020 os         1 8GO      -0.354100
     26 O26        -22.5390     0.4510   -30.4020 oh         1 8GO      -0.662000
     27 H1         -21.4840    -1.0930   -21.9550 ha         1 8GO       0.127000
     28 H2         -21.6570    -1.1720   -24.4480 ha         1 8GO       0.133000
     29 H3         -26.3350    -5.9620   -23.7170 h1         1 8GO       0.068700
     30 H4         -25.3990    -5.4150   -22.3480 h1         1 8GO       0.068700
     31 H5         -25.5060    -3.3210   -28.1990 hc         1 8GO       0.068700
     32 H6         -23.9440    -5.8810   -27.6380 ha         1 8GO       0.170000
     33 H7         -25.9350    -3.9500   -30.2800 hc         1 8GO       0.037367
     34 H8         -25.5040    -5.1970   -31.4430 hc         1 8GO       0.037367
     35 H9         -26.9570    -5.3790   -30.4500 hc         1 8GO       0.037367
     36 H10        -24.4430    -7.8070   -28.9350 hc         1 8GO       0.037367
     37 H11        -26.0230    -7.7210   -29.7220 hc         1 8GO       0.037367
     38 H12        -24.5460    -7.4500   -30.6630 hc         1 8GO       0.037367
     39 H13        -20.9230    -1.7150   -28.4180 hc         1 8GO       0.062200
     40 H14        -21.5090    -0.1160   -28.0520 hc         1 8GO       0.062200
     41 H15        -22.1130    -1.5750   -30.6870 h1         1 8GO       0.021200
     42 H16        -20.7140    -0.5300   -30.4210 h1         1 8GO       0.021200
     43 H17        -23.9340     0.3230   -27.6570 hc         1 8GO       0.053033
     44 H18        -24.6320    -0.5390   -29.0370 hc         1 8GO       0.053033
     45 H19        -25.0770    -0.9950   -27.3950 hc         1 8GO       0.053033
     46 H20        -23.6840    -2.8870   -29.7020 hc         1 8GO       0.057700
     47 H21        -22.5050    -3.6600   -28.6540 hc         1 8GO       0.057700
     48 H22        -27.8130    -4.8940   -22.0370 hc         1 8GO       0.043033
     49 H23        -26.8860    -3.3810   -22.1320 hc         1 8GO       0.043033
     50 H24        -27.8260    -3.9370   -23.5350 hc         1 8GO       0.043033
     51 H25        -23.1510    -3.5290   -19.7370 hc         1 8GO       0.055700
     52 H26        -22.0410    -2.1530   -19.7950 hc         1 8GO       0.055700
     53 H27        -23.7900    -1.8750   -19.7380 hc         1 8GO       0.055700
     54 H28        -22.4480     0.6270   -31.3650 ho         1 8GO       0.445000
@<TRIPOS>BOND
     1     1     4 ar  
     2     1    22 ar  
     3     1    27 1   
     4     2     3 ar  
     5     2     5 1   
     6     2    21 ar  
     7     3     4 ar  
     8     3    24 1   
     9     4    28 1   
    10     5     6 1   
    11     5    18 1   
    12     6    20 1   
    13     6    29 1   
    14     6    30 1   
    15     7     8 1   
    16     7    16 1   
    17     7    17 1   
    18     7    31 1   
    19     8     9 2   
    20     8    32 1   
    21     9    10 1   
    22     9    11 1   
    23    10    33 1   
    24    10    34 1   
    25    10    35 1   
    26    11    36 1   
    27    11    37 1   
    28    11    38 1   
    29    12    13 1   
    30    12    15 1   
    31    12    16 1   
    32    12    25 1   
    33    13    14 1   
    34    13    39 1   
    35    13    40 1   
    36    14    26 1   
    37    14    41 1   
    38    14    42 1   
    39    15    43 1   
    40    15    44 1   
    41    15    45 1   
    42    16    46 1   
    43    16    47 1   
    44    17    18 1   
    45    17    24 2   
    46    18    19 2   
    47    20    48 1   
    48    20    49 1   
    49    20    50 1   
    50    21    22 ar  
    51    22    23 1   
    52    23    51 1   
    53    23    52 1   
    54    23    53 1   
    55    24    25 1   
    56    26    54 1   
@<TRIPOS>SUBSTRUCTURE
     1 8GO         1 TEMP              0 ****  ****    0 ROOT
