@<TRIPOS>MOLECULE
8GP
   38    39     1     0     0
SMALL
No Charge or Current Charge


@<TRIPOS>ATOM
      1 C1          -0.9280    -0.6080    -0.3920 c6         1 8GP       0.305700
      2 C2          -1.9080    -1.6570     0.2360 c6         1 8GP       0.096300
      3 O2          -1.6400    -3.0090    -0.2130 oh         1 8GP      -0.718000
      4 C3          -3.3670    -1.2670    -0.1360 c6         1 8GP       0.137300
      5 O3          -4.2920    -2.1940     0.4570 oh         1 8GP      -0.666000
      6 C4          -3.6740     0.1900     0.3170 c6         1 8GP       0.144300
      7 O4          -5.0170     0.5430    -0.0680 oh         1 8GP      -0.716000
      8 C5          -2.6080     1.1520    -0.2960 c6         1 8GP       0.178300
      9 O5          -1.2750     0.7080     0.0800 os         1 8GP      -0.456000
     10 C6          -2.7930     2.6290     0.1860 c3         1 8GP       0.172600
     11 O6          -1.7890     3.5310    -0.3250 oh         1 8GP      -0.708000
     12 N1           0.4490    -0.8340     0.0270 ns         1 8GP      -0.478900
     13 C7           1.5640    -0.3450    -0.6280 c          1 8GP       0.531100
     14 O7           1.4930     0.2050    -1.7250 o          1 8GP      -0.582100
     15 C8           2.9550    -0.5690     0.1500 c          1 8GP       0.521100
     16 O8           3.0290    -1.1380     1.2390 o          1 8GP      -0.600100
     17 N2           4.0710    -0.0700    -0.5040 ns         1 8GP      -0.450900
     18 C9           5.4160    -0.1540    -0.0010 cx         1 8GP       0.037700
     19 C10          6.4670     0.7080    -0.6580 cx         1 8GP      -0.129400
     20 C11          5.9690     1.0460     0.7270 cx         1 8GP      -0.129400
     21 H1          -0.9900    -0.6440    -1.4920 h2         1 8GP       0.085700
     22 H2          -1.8060    -1.6020     1.3310 h1         1 8GP       0.055700
     23 HO2         -0.6950    -3.2120    -0.0110 ho         1 8GP       0.519000
     24 H3          -3.4560    -1.3100    -1.2320 h1         1 8GP       0.058700
     25 HO3         -3.8430    -3.0690     0.3840 ho         1 8GP       0.467000
     26 H4          -3.5810     0.2350     1.4130 h1         1 8GP       0.053700
     27 HO4         -5.5500    -0.2710     0.1060 ho         1 8GP       0.526000
     28 H5          -2.6900     1.1380    -1.3930 h1         1 8GP       0.066700
     29 H61         -2.7770     2.6330     1.2850 h1         1 8GP       0.036200
     30 H62         -3.7900     2.9690    -0.1240 h1         1 8GP       0.036200
     31 HO6         -1.9570     4.4110     0.0860 ho         1 8GP       0.504000
     32 HN1          0.6140    -1.2310     0.9450 hn         1 8GP       0.342500
     33 HN2          3.8960     0.3750    -1.4000 hn         1 8GP       0.348500
     34 H9           5.7090    -1.1480     0.3450 h1         1 8GP       0.088700
     35 H101         7.4690     0.2970    -0.7500 hc         1 8GP       0.080950
     36 H102         6.1640     1.3560    -1.4770 hc         1 8GP       0.080950
     37 H111         5.3270     1.9170     0.8380 hc         1 8GP       0.080950
     38 H112         6.6360     0.8630     1.5660 hc         1 8GP       0.080950
@<TRIPOS>BOND
     1     1     2 1   
     2     1     9 1   
     3     1    12 1   
     4     1    21 1   
     5     2     3 1   
     6     2     4 1   
     7     2    22 1   
     8     3    23 1   
     9     4     5 1   
    10     4     6 1   
    11     4    24 1   
    12     5    25 1   
    13     6     7 1   
    14     6     8 1   
    15     6    26 1   
    16     7    27 1   
    17     8     9 1   
    18     8    10 1   
    19     8    28 1   
    20    10    11 1   
    21    10    29 1   
    22    10    30 1   
    23    11    31 1   
    24    12    13 1   
    25    12    32 1   
    26    13    14 2   
    27    13    15 1   
    28    15    16 2   
    29    15    17 1   
    30    17    18 1   
    31    17    33 1   
    32    18    19 1   
    33    18    20 1   
    34    18    34 1   
    35    19    20 1   
    36    19    35 1   
    37    19    36 1   
    38    20    37 1   
    39    20    38 1   
@<TRIPOS>SUBSTRUCTURE
     1 8GP         1 TEMP              0 ****  ****    0 ROOT
