@<TRIPOS>MOLECULE
8GP
   38    39     1     0     0
SMALL
abcg2


@<TRIPOS>ATOM
      1 C1          -0.8310    -0.3580    -0.3000 c6         1 8GP       0.305700
      2 C2          -1.6820    -1.4920     0.2750 c6         1 8GP       0.096300
      3 O2          -1.2960    -2.7370    -0.2480 oh         1 8GP      -0.718000
      4 C3          -3.1390    -1.2660    -0.1070 c6         1 8GP       0.137300
      5 O3          -3.9890    -2.2000     0.5110 oh         1 8GP      -0.666000
      6 C4          -3.5920     0.1270     0.3090 c6         1 8GP       0.144300
      7 O4          -4.8830     0.4100    -0.1700 oh         1 8GP      -0.716000
      8 C5          -2.6310     1.1650    -0.2750 c6         1 8GP       0.178300
      9 O5          -1.3110     0.8850     0.1490 os         1 8GP      -0.456000
     10 C6          -2.9720     2.5700     0.1730 c3         1 8GP       0.172600
     11 O6          -2.1100     3.4740    -0.4740 oh         1 8GP      -0.708000
     12 N1           0.5240    -0.4930     0.1260 ns         1 8GP      -0.478900
     13 C7           1.5840    -0.2150    -0.6430 c          1 8GP       0.531100
     14 O7           1.5500     0.1450    -1.8050 o          1 8GP      -0.582100
     15 C8           2.9180    -0.4230     0.0970 c          1 8GP       0.521100
     16 O8           2.9390    -0.7900     1.2600 o          1 8GP      -0.600100
     17 N2           3.9820    -0.1630    -0.6570 ns         1 8GP      -0.450900
     18 C9           5.3190    -0.3300    -0.1870 cx         1 8GP       0.037700
     19 C10          6.3250     0.7070    -0.5630 cx         1 8GP      -0.129400
     20 C11          5.8500     0.6030     0.8530 cx         1 8GP      -0.129400
     21 H1          -0.8590    -0.4080    -1.3960 h2         1 8GP       0.085700
     22 H2          -1.5960    -1.4710     1.3720 h1         1 8GP       0.055700
     23 HO2         -0.5220    -3.0550     0.2270 ho         1 8GP       0.519000
     24 H3          -3.2160    -1.3310    -1.2050 h1         1 8GP       0.058700
     25 HO3         -3.7560    -3.0790     0.1940 ho         1 8GP       0.467000
     26 H4          -3.5520     0.1970     1.4080 h1         1 8GP       0.053700
     27 HO4         -5.4890    -0.2460     0.1900 ho         1 8GP       0.526000
     28 H5          -2.6910     1.1130    -1.3750 h1         1 8GP       0.066700
     29 H61         -2.8790     2.6260     1.2670 h1         1 8GP       0.036200
     30 H62         -4.0210     2.7640    -0.0720 h1         1 8GP       0.036200
     31 HO6         -2.3760     4.3640    -0.2300 ho         1 8GP       0.504000
     32 HN1          0.7080    -0.7280     1.0920 hn         1 8GP       0.342500
     33 HN2          3.8290     0.0800    -1.6240 hn         1 8GP       0.348500
     34 H9           5.6570    -1.3610    -0.1460 h1         1 8GP       0.088700
     35 H101         7.3240     0.3700    -0.8060 hc         1 8GP       0.080950
     36 H102         5.9820     1.5530    -1.1460 hc         1 8GP       0.080950
     37 H111         5.1890     1.3780     1.2200 hc         1 8GP       0.080950
     38 H112         6.5170     0.1890     1.5980 hc         1 8GP       0.080950
@<TRIPOS>BOND
     1     1     2 1   
     2     1     9 1   
     3     1    12 1   
     4     1    21 1   
     5     2     3 1   
     6     2     4 1   
     7     2    22 1   
     8     3    23 1   
     9     4     5 1   
    10     4     6 1   
    11     4    24 1   
    12     5    25 1   
    13     6     7 1   
    14     6     8 1   
    15     6    26 1   
    16     7    27 1   
    17     8     9 1   
    18     8    10 1   
    19     8    28 1   
    20    10    11 1   
    21    10    29 1   
    22    10    30 1   
    23    11    31 1   
    24    12    13 1   
    25    12    32 1   
    26    13    14 2   
    27    13    15 1   
    28    15    16 2   
    29    15    17 1   
    30    17    18 1   
    31    17    33 1   
    32    18    19 1   
    33    18    20 1   
    34    18    34 1   
    35    19    20 1   
    36    19    35 1   
    37    19    36 1   
    38    20    37 1   
    39    20    38 1   
@<TRIPOS>SUBSTRUCTURE
     1 8GP         1 TEMP              0 ****  ****    0 ROOT
