@<TRIPOS>MOLECULE
8GQ
   61    66     1     0     0
SMALL
No Charge or Current Charge


@<TRIPOS>ATOM
      1 C1           4.8090    -3.0190   -11.9120 ca         1 8GQ       0.294000
      2 C2           5.4740    -2.5580   -13.0610 ca         1 8GQ      -0.184000
      3 C3           5.0120    -2.9190   -14.3450 ca         1 8GQ       0.122100
      4 N6           5.2600    -2.6840   -10.6350 nu         1 8GQ      -0.979000
      5 C7           1.2270    -4.8930   -14.8120 c6         1 8GQ      -0.159400
      6 C8           2.1760    -4.7280   -16.0090 c          1 8GQ       0.564000
      7 C9           6.8590    -1.7350   -15.5230 c3         1 8GQ       0.203800
      8 C10          8.0110    -2.6200   -15.0810 c2         1 8GQ      -0.259200
      9 C11          9.2970    -2.2330   -15.0010 c2         1 8GQ      -0.226200
     10 C12         10.4500    -3.1000   -14.5470 c3         1 8GQ       0.186800
     11 C13         11.6360    -3.1040   -12.3710 c5         1 8GQ       0.150300
     12 C14         12.3910    -2.1140   -11.4420 c5         1 8GQ      -0.084400
     13 C15         11.2550    -1.2870   -10.7560 c5         1 8GQ       0.249500
     14 C16         10.4430    -3.5330   -11.4590 c5         1 8GQ       0.188800
     15 C19          6.4620    -2.2210   -10.1540 cc         1 8GQ       0.435000
     16 C20          7.7320    -1.0140    -8.5480 cc         1 8GQ       0.525500
     17 C21          7.4300    -0.2860    -7.4410 cd         1 8GQ      -0.271300
     18 C22          6.0170    -0.3620    -7.2970 cd         1 8GQ       0.465500
     19 C24         10.8660     0.0380   -11.4930 c3         1 8GQ       0.145600
     20 N5           9.0540     0.9800    -5.8940 n1         1 8GQ      -0.491000
     21 C23          8.3330     0.4010    -6.6050 ch         1 8GQ       0.350700
     22 N4           5.4060    -1.0830    -8.2370 nc         1 8GQ      -0.617100
     23 N2           6.5110    -1.4630    -8.9820 na         1 8GQ       0.023900
     24 C18          7.6970    -2.5310   -10.6800 cd         1 8GQ      -0.378000
     25 N3           8.9730    -1.2260    -9.0650 nc         1 8GQ      -0.776000
     26 C17          8.9080    -2.0060   -10.1240 cd         1 8GQ       0.704900
     27 N1          10.1390    -2.2830   -10.7040 nh         1 8GQ      -0.777300
     28 O3          11.9640     0.9730   -11.5230 oh         1 8GQ      -0.669000
     29 O2          11.1460    -2.3660   -13.5250 os         1 8GQ      -0.454000
     30 O1           5.6380    -2.5010   -15.5080 os         1 8GQ      -0.361100
     31 C4           3.8620    -3.7240   -14.4630 ca         1 8GQ      -0.049000
     32 N            3.3700    -4.0970   -15.7340 ns         1 8GQ      -0.138000
     33 O            1.8970    -5.1490   -17.1250 o          1 8GQ      -0.543000
     34 C6           1.9630    -5.0910   -13.4600 c6         1 8GQ      -0.024100
     35 C5           3.1830    -4.1750   -13.3150 ca         1 8GQ      -0.078300
     36 C            3.6630    -3.8180   -12.0420 ca         1 8GQ      -0.128000
     37 H1           6.3380    -1.9160   -12.9480 ha         1 8GQ       0.136000
     38 H2           4.5270    -2.5940    -9.9280 hn         1 8GQ       0.537000
     39 H3           0.7060    -3.9300   -14.7270 hc         1 8GQ       0.079200
     40 H4           0.4700    -5.6610   -15.0170 hc         1 8GQ       0.079200
     41 H5           7.0580    -1.3780   -16.5420 h1         1 8GQ       0.067200
     42 H6           6.7790    -0.8480   -14.8800 h1         1 8GQ       0.067200
     43 H7           7.7230    -3.6390   -14.8180 ha         1 8GQ       0.185000
     44 H8           9.5900    -1.2150   -15.2630 ha         1 8GQ       0.185000
     45 H9          10.0690    -4.0600   -14.1740 h1         1 8GQ       0.055700
     46 H10         11.1190    -3.3130   -15.3900 h1         1 8GQ       0.055700
     47 H11         12.2580    -3.9460   -12.7030 h1         1 8GQ       0.056700
     48 H12         12.9650    -2.6650   -10.6900 hc         1 8GQ       0.075700
     49 H13         13.1060    -1.4880   -11.9860 hc         1 8GQ       0.075700
     50 H14         11.5720    -1.0020    -9.7420 h1         1 8GQ       0.093700
     51 H15          9.6030    -3.9150   -12.0490 h1         1 8GQ       0.060200
     52 H16         10.7500    -4.3320   -10.7710 h1         1 8GQ       0.060200
     53 H17          5.4150     0.0960    -6.5220 h4         1 8GQ       0.053800
     54 H18         10.5310    -0.1930   -12.5120 h1         1 8GQ       0.045700
     55 H19         10.0120     0.4900   -10.9700 h1         1 8GQ       0.045700
     56 H20          7.7340    -3.1580   -11.5550 ha         1 8GQ       0.144000
     57 H21         11.6550     1.7650   -12.0170 ho         1 8GQ       0.448000
     58 H22          3.9870    -3.9320   -16.5190 hn         1 8GQ       0.174000
     59 H23          1.2610    -4.9310   -12.6290 hc         1 8GQ       0.062700
     60 H24          2.2970    -6.1350   -13.3800 hc         1 8GQ       0.062700
     61 H25          3.1540    -4.1770   -11.1520 ha         1 8GQ       0.129000
@<TRIPOS>BOND
     1     1     2 ar  
     2     1     4 1   
     3     1    36 ar  
     4     2     3 ar  
     5     2    37 1   
     6     3    30 1   
     7     3    31 ar  
     8     4    15 1   
     9     4    38 1   
    10     5     6 1   
    11     5    34 1   
    12     5    39 1   
    13     5    40 1   
    14     6    32 1   
    15     6    33 2   
    16     7     8 1   
    17     7    30 1   
    18     7    41 1   
    19     7    42 1   
    20     8     9 2   
    21     8    43 1   
    22     9    10 1   
    23     9    44 1   
    24    10    29 1   
    25    10    45 1   
    26    10    46 1   
    27    11    12 1   
    28    11    14 1   
    29    11    29 1   
    30    11    47 1   
    31    12    13 1   
    32    12    48 1   
    33    12    49 1   
    34    13    19 1   
    35    13    27 1   
    36    13    50 1   
    37    14    27 1   
    38    14    51 1   
    39    14    52 1   
    40    15    23 1   
    41    15    24 2   
    42    16    17 2   
    43    16    23 1   
    44    16    25 1   
    45    17    18 1   
    46    17    21 1   
    47    18    22 2   
    48    18    53 1   
    49    19    28 1   
    50    19    54 1   
    51    19    55 1   
    52    20    21 3   
    53    22    23 1   
    54    24    26 1   
    55    24    56 1   
    56    25    26 2   
    57    26    27 1   
    58    28    57 1   
    59    31    32 1   
    60    31    35 ar  
    61    32    58 1   
    62    34    35 1   
    63    34    59 1   
    64    34    60 1   
    65    35    36 ar  
    66    36    61 1   
@<TRIPOS>SUBSTRUCTURE
     1 8GQ         1 TEMP              0 ****  ****    0 ROOT
