@<TRIPOS>MOLECULE
8GQ
   61    66     1     0     0
SMALL
abcg2


@<TRIPOS>ATOM
      1 C1           4.7070    -2.7480   -11.8840 ca         1 8GQ       0.294000
      2 C2           5.3590    -2.3580   -13.0570 ca         1 8GQ      -0.184000
      3 C3           5.0220    -2.9550   -14.2620 ca         1 8GQ       0.122100
      4 N6           5.0390    -2.1340   -10.6510 nu         1 8GQ      -0.979000
      5 C7           1.6040    -5.3530   -14.5670 c6         1 8GQ      -0.159400
      6 C8           2.5430    -5.2420   -15.7470 c          1 8GQ       0.564000
      7 C9           6.6700    -1.7350   -15.5780 c3         1 8GQ       0.203800
      8 C10          7.9970    -2.3980   -15.3720 c2         1 8GQ      -0.259200
      9 C11          9.0480    -1.8050   -14.8150 c2         1 8GQ      -0.226200
     10 C12         10.4450    -2.3610   -14.8520 c3         1 8GQ       0.186800
     11 C13         11.2030    -3.1390   -12.6940 c5         1 8GQ       0.150300
     12 C14         12.0860    -2.7070   -11.5260 c5         1 8GQ      -0.084400
     13 C15         11.1860    -1.8150   -10.6550 c5         1 8GQ       0.249500
     14 C16          9.8430    -3.3080   -12.0350 c5         1 8GQ       0.188800
     15 C19          6.2990    -1.9030   -10.2290 cc         1 8GQ       0.435000
     16 C20          7.7080    -0.7660    -8.6580 cc         1 8GQ       0.525500
     17 C21          7.4450     0.0310    -7.5200 cd         1 8GQ      -0.271300
     18 C22          6.0340     0.0880    -7.4190 cd         1 8GQ       0.465500
     19 C24         11.3480    -0.3280   -10.9650 c3         1 8GQ       0.145600
     20 N5           9.1990     1.1270    -6.0160 n1         1 8GQ      -0.491000
     21 C23          8.4020     0.6290    -6.6920 ch         1 8GQ       0.350700
     22 N4           5.4270    -0.5880    -8.3760 nc         1 8GQ      -0.617100
     23 N2           6.4530    -1.1090    -9.1220 na         1 8GQ       0.023900
     24 C18          7.4550    -2.3700   -10.8060 cd         1 8GQ      -0.378000
     25 N3           8.8370    -1.1390    -9.2420 nc         1 8GQ      -0.776000
     26 C17          8.7150    -1.9290   -10.3280 cd         1 8GQ       0.704900
     27 N1           9.8350    -2.2880   -10.9870 nh         1 8GQ      -0.777300
     28 O3          12.6270     0.0680   -10.4610 oh         1 8GQ      -0.669000
     29 O2          11.2090    -2.1000   -13.6740 os         1 8GQ      -0.454000
     30 O1           5.5640    -2.6500   -15.4710 os         1 8GQ      -0.361100
     31 C4           4.0160    -3.9360   -14.2930 ca         1 8GQ      -0.049000
     32 N            3.6840    -4.5390   -15.5150 ns         1 8GQ      -0.138000
     33 O            2.2960    -5.7150   -16.8530 o          1 8GQ      -0.543000
     34 C6           2.3410    -5.4150   -13.2280 c6         1 8GQ      -0.024100
     35 C5           3.3640    -4.3160   -13.1240 ca         1 8GQ      -0.078300
     36 C            3.7130    -3.7160   -11.9170 ca         1 8GQ      -0.128000
     37 H1           6.1130    -1.5880   -13.0200 ha         1 8GQ       0.136000
     38 H2           4.2940    -1.8790   -10.0200 hn         1 8GQ       0.537000
     39 H3           0.9590    -4.4680   -14.5980 hc         1 8GQ       0.079200
     40 H4           0.9710    -6.2250   -14.7190 hc         1 8GQ       0.079200
     41 H5           6.5980    -1.3780   -16.6070 h1         1 8GQ       0.067200
     42 H6           6.5350    -0.8760   -14.9180 h1         1 8GQ       0.067200
     43 H7           8.1000    -3.3870   -15.8130 ha         1 8GQ       0.185000
     44 H8           8.9450    -0.8150   -14.3760 ha         1 8GQ       0.185000
     45 H9          10.4280    -3.4330   -15.0730 h1         1 8GQ       0.055700
     46 H10         10.9910    -1.8660   -15.6610 h1         1 8GQ       0.055700
     47 H11         11.5380    -4.0720   -13.1550 h1         1 8GQ       0.056700
     48 H12         12.3930    -3.5940   -10.9710 hc         1 8GQ       0.075700
     49 H13         12.9810    -2.1840   -11.8590 hc         1 8GQ       0.075700
     50 H14         11.3840    -1.9620    -9.5910 h1         1 8GQ       0.093700
     51 H15          9.0340    -3.1660   -12.7440 h1         1 8GQ       0.060200
     52 H16          9.7490    -4.3090   -11.6000 h1         1 8GQ       0.060200
     53 H17          5.4550     0.6090    -6.6710 h4         1 8GQ       0.053800
     54 H18         11.2890    -0.1740   -12.0450 h1         1 8GQ       0.045700
     55 H19         10.5520     0.2370   -10.4770 h1         1 8GQ       0.045700
     56 H20          7.3800    -3.0190   -11.6570 ha         1 8GQ       0.144000
     57 H21         12.7940     0.9760   -10.7400 ho         1 8GQ       0.448000
     58 H22          4.2870    -4.3610   -16.3060 hn         1 8GQ       0.174000
     59 H23          1.6320    -5.3570   -12.4020 hc         1 8GQ       0.062700
     60 H24          2.8520    -6.3810   -13.1420 hc         1 8GQ       0.062700
     61 H25          3.2190    -4.0150   -11.0010 ha         1 8GQ       0.129000
@<TRIPOS>BOND
     1     1     2 ar  
     2     1     4 1   
     3     1    36 ar  
     4     2     3 ar  
     5     2    37 1   
     6     3    30 1   
     7     3    31 ar  
     8     4    15 1   
     9     4    38 1   
    10     5     6 1   
    11     5    34 1   
    12     5    39 1   
    13     5    40 1   
    14     6    32 1   
    15     6    33 2   
    16     7     8 1   
    17     7    30 1   
    18     7    41 1   
    19     7    42 1   
    20     8     9 2   
    21     8    43 1   
    22     9    10 1   
    23     9    44 1   
    24    10    29 1   
    25    10    45 1   
    26    10    46 1   
    27    11    12 1   
    28    11    14 1   
    29    11    29 1   
    30    11    47 1   
    31    12    13 1   
    32    12    48 1   
    33    12    49 1   
    34    13    19 1   
    35    13    27 1   
    36    13    50 1   
    37    14    27 1   
    38    14    51 1   
    39    14    52 1   
    40    15    23 1   
    41    15    24 2   
    42    16    17 2   
    43    16    23 1   
    44    16    25 1   
    45    17    18 1   
    46    17    21 1   
    47    18    22 2   
    48    18    53 1   
    49    19    28 1   
    50    19    54 1   
    51    19    55 1   
    52    20    21 3   
    53    22    23 1   
    54    24    26 1   
    55    24    56 1   
    56    25    26 2   
    57    26    27 1   
    58    28    57 1   
    59    31    32 1   
    60    31    35 ar  
    61    32    58 1   
    62    34    35 1   
    63    34    59 1   
    64    34    60 1   
    65    35    36 ar  
    66    36    61 1   
@<TRIPOS>SUBSTRUCTURE
     1 8GQ         1 TEMP              0 ****  ****    0 ROOT
