@<TRIPOS>MOLECULE
8GR
   52    56     1     0     0
SMALL
bcc


@<TRIPOS>ATOM
      1 C15         -2.9040     3.2070    -0.6980 c6         1 8GR       0.128800
      2 C17          0.8640    -1.7540     0.1310 cc         1 8GR      -0.096100
      3 C20          2.5610     0.7600    -0.6780 cc         1 8GR      -0.052100
      4 C22          4.7880     0.8690    -0.6250 ca         1 8GR      -0.058200
      5 C24          5.4190    -1.3200     0.1830 ca         1 8GR      -0.084000
      6 C26          7.0840     0.3610    -0.3540 ca         1 8GR      -0.112000
      7 C28          0.0760    -2.9310     0.5420 c          1 8GR       0.594900
      8 C01         -5.9650    -0.9950    -0.5440 c3         1 8GR       0.123700
      9 C03         -3.5980    -1.1270    -0.3350 ca         1 8GR       0.225100
     10 C04         -3.6740    -2.4380     0.1720 ca         1 8GR      -0.277000
     11 C05         -2.5240    -3.1320     0.4950 ca         1 8GR       0.026000
     12 C06         -1.2970    -2.5140     0.3090 ca         1 8GR      -0.301600
     13 C07         -1.2520    -1.2160    -0.1950 ca         1 8GR       0.184100
     14 C08         -2.3650    -0.4790    -0.5380 ca         1 8GR      -0.161300
     15 C09         -2.2920     0.9230    -1.0730 c3         1 8GR       0.240100
     16 N10         -2.6850     1.9090    -0.0850 n3         1 8GR      -0.707600
     17 C11         -1.7310     2.0120     1.0050 c6         1 8GR       0.128800
     18 C12         -2.2140     3.0200     2.0390 c6         1 8GR       0.146800
     19 N13         -2.5040     4.3320     1.4860 n7         1 8GR      -0.787200
     20 C14         -3.3880     4.2110     0.3390 c6         1 8GR       0.146800
     21 O16          0.0210    -0.7600    -0.3040 os         1 8GR      -0.217200
     22 C19          2.9800    -0.4760    -0.2180 cd         1 8GR      -0.138200
     23 N21          3.6310     1.5460    -0.9140 na         1 8GR      -0.163400
     24 C23          4.4200    -0.4130    -0.1800 ca         1 8GR      -0.075800
     25 C25          6.7400    -0.9240     0.0930 ca         1 8GR      -0.148000
     26 C27          6.1150     1.2760    -0.7190 ca         1 8GR      -0.138000
     27 O29          0.5080    -3.9870     0.9740 o          1 8GR      -0.517100
     28 H1          -1.9830     3.5940    -1.1730 h1         1 8GR       0.032950
     29 H2          -3.6520     3.1030    -1.4880 h1         1 8GR       0.032950
     30 H4           5.1690    -2.3160     0.5280 ha         1 8GR       0.137000
     31 H5           8.1280     0.6400    -0.4140 ha         1 8GR       0.130000
     32 H6          -6.6680    -0.2380    -0.8810 h1         1 8GR       0.045700
     33 H7          -6.0730    -1.8840    -1.1690 h1         1 8GR       0.045700
     34 H8          -6.1950    -1.2550     0.4910 h1         1 8GR       0.045700
     35 H9          -4.6310    -2.9170     0.3190 ha         1 8GR       0.142000
     36 H10         -2.5870    -4.1390     0.8880 ha         1 8GR       0.148000
     37 H11         -1.2800     1.1200    -1.4640 h1         1 8GR       0.041200
     38 H12         -2.9680     1.0120    -1.9270 h1         1 8GR       0.041200
     39 H14         -1.6150     1.0370     1.4850 h1         1 8GR       0.032950
     40 H15         -0.7310     2.3120     0.6400 h1         1 8GR       0.032950
     41 H16         -3.1260     2.6350     2.5080 h1         1 8GR       0.058700
     42 H17         -1.4660     3.1200     2.8290 h1         1 8GR       0.058700
     43 H18         -1.6350     4.7630     1.1890 hn         1 8GR       0.341800
     44 H20         -3.5090     5.1910    -0.1280 h1         1 8GR       0.058700
     45 H21         -4.3750     3.9020     0.6980 h1         1 8GR       0.058700
     46 H23          3.5780     2.4910    -1.2590 hn         1 8GR       0.301700
     47 H24          7.5260    -1.6160     0.3690 ha         1 8GR       0.132000
     48 H25          6.3790     2.2670    -1.0650 ha         1 8GR       0.133000
     49 C18          2.1970    -1.6110     0.1610 cf         1 8GR       0.004000
     50 O02         -4.6760    -0.4170    -0.6670 os         1 8GR      -0.297900
     51 H3           1.5660     1.1350    -0.8540 h4         1 8GR       0.176000
     52 H22          2.7340    -2.4810     0.5240 ha         1 8GR       0.155000
@<TRIPOS>BOND
     1     1    16 1   
     2     1    20 1   
     3     1    28 1   
     4     1    29 1   
     5     2     7 1   
     6     2    21 1   
     7     2    49 2   
     8     3    22 2   
     9     3    23 1   
    10     3    51 1   
    11     4    23 1   
    12     4    24 ar  
    13     4    26 ar  
    14     5    24 ar  
    15     5    25 ar  
    16     5    30 1   
    17     6    25 ar  
    18     6    26 ar  
    19     6    31 1   
    20     7    12 1   
    21     7    27 2   
    22     8    32 1   
    23     8    33 1   
    24     8    34 1   
    25     8    50 1   
    26     9    10 ar  
    27     9    14 ar  
    28     9    50 1   
    29    10    11 ar  
    30    10    35 1   
    31    11    12 ar  
    32    11    36 1   
    33    12    13 ar  
    34    13    14 ar  
    35    13    21 1   
    36    14    15 1   
    37    15    16 1   
    38    15    37 1   
    39    15    38 1   
    40    16    17 1   
    41    17    18 1   
    42    17    39 1   
    43    17    40 1   
    44    18    19 1   
    45    18    41 1   
    46    18    42 1   
    47    19    20 1   
    48    19    43 1   
    49    20    44 1   
    50    20    45 1   
    51    22    24 1   
    52    22    49 1   
    53    23    46 1   
    54    25    47 1   
    55    26    48 1   
    56    49    52 1   
@<TRIPOS>SUBSTRUCTURE
     1 8GR         1 TEMP              0 ****  ****    0 ROOT
