@<TRIPOS>MOLECULE
8GR
   52    56     1     0     0
SMALL
No Charge or Current Charge


@<TRIPOS>ATOM
      1 C15         -2.9200     3.2870    -0.6760 c6         1 8GR       0.128800
      2 C17          0.7960    -1.6250     0.0460 cc         1 8GR      -0.096100
      3 C20          2.5540     0.8730    -0.7860 cc         1 8GR      -0.102100
      4 C22          4.8360     0.9110    -0.6030 ca         1 8GR      -0.058200
      5 C24          5.3640    -1.2790     0.2860 ca         1 8GR      -0.066000
      6 C26          7.1410     0.3480    -0.1870 ca         1 8GR      -0.094000
      7 C28          0.0720    -2.8410     0.4700 c          1 8GR       0.594900
      8 C01         -6.2020    -1.2510    -0.5200 c3         1 8GR       0.146900
      9 C03         -3.7330    -1.2460    -0.3740 ca         1 8GR       0.225100
     10 C04         -3.7080    -2.5730     0.1370 ca         1 8GR      -0.259000
     11 C05         -2.4890    -3.2000     0.4530 ca         1 8GR       0.044000
     12 C06         -1.3170    -2.4710     0.2410 ca         1 8GR      -0.301600
     13 C07         -1.3200    -1.1850    -0.2560 ca         1 8GR       0.184100
     14 C08         -2.5240    -0.5360    -0.5700 ca         1 8GR      -0.161300
     15 C09         -2.5140     0.8870    -1.1190 c3         1 8GR       0.240100
     16 N10         -2.7370     1.9280    -0.0840 n3         1 8GR      -0.707600
     17 C11         -1.6810     1.9560     0.9760 c6         1 8GR       0.128800
     18 C12         -1.9540     3.0490     2.0590 c6         1 8GR       0.146800
     19 N13         -2.1410     4.4040     1.4640 n7         1 8GR      -0.842400
     20 C14         -3.1970     4.3770     0.4100 c6         1 8GR       0.146800
     21 O16         -0.0600    -0.6270    -0.3960 os         1 8GR      -0.217200
     22 C19          2.9990    -0.3450    -0.2780 cd         1 8GR      -0.138200
     23 N21          3.7230     1.6400    -0.9800 na         1 8GR      -0.213700
     24 C23          4.4410    -0.3210    -0.1620 ca         1 8GR      -0.075800
     25 C25          6.7320    -0.9290     0.2700 ca         1 8GR      -0.130000
     26 C27          6.1850     1.2870    -0.6320 ca         1 8GR      -0.120000
     27 O29          0.5020    -3.9000     0.9080 o          1 8GR      -0.517100
     28 H1          -2.0220     3.5750    -1.2430 h1         1 8GR       0.032950
     29 H2          -3.7590     3.2820    -1.3870 h1         1 8GR       0.032950
     30 H4           5.0440    -2.2570     0.6360 ha         1 8GR       0.119000
     31 H5           8.1980     0.6070    -0.1950 ha         1 8GR       0.112000
     32 H6          -7.0060    -0.5740    -0.8360 h1         1 8GR       0.045700
     33 H7          -6.2750    -2.1670    -1.1200 h1         1 8GR       0.045700
     34 H8          -6.3680    -1.5050     0.5340 h1         1 8GR       0.045700
     35 H9          -4.6250    -3.1330     0.2940 ha         1 8GR       0.124000
     36 H10         -2.4600    -4.2160     0.8470 ha         1 8GR       0.130000
     37 H11         -1.5600     1.0700    -1.6310 h1         1 8GR       0.041200
     38 H12         -3.2920     0.9620    -1.8910 h1         1 8GR       0.041200
     39 H14         -1.6180     0.9820     1.4820 h1         1 8GR       0.032950
     40 H15         -0.6970     2.1460     0.5220 h1         1 8GR       0.032950
     41 H16         -2.8590     2.7700     2.6210 h1         1 8GR       0.058700
     42 H17         -1.1190     3.0680     2.7760 h1         1 8GR       0.058700
     43 H18         -1.2580     4.6720     1.0140 hn         1 8GR       0.397000
     44 H20         -3.2670     5.3640    -0.0730 h1         1 8GR       0.058700
     45 H21         -4.1720     4.1720     0.8760 h1         1 8GR       0.058700
     46 H23          3.7460     2.5880    -1.3440 hn         1 8GR       0.352000
     47 H24          7.4760    -1.6450     0.6100 ha         1 8GR       0.114000
     48 H25          6.4890     2.2700    -0.9840 ha         1 8GR       0.115000
     49 C18          2.1570    -1.4900     0.0910 cf         1 8GR      -0.046000
     50 O02         -4.9230    -0.6210    -0.7000 os         1 8GR      -0.321100
     51 H3           1.5580     1.2390    -1.0130 h4         1 8GR       0.226000
     52 H22          2.6850    -2.3680     0.4670 ha         1 8GR       0.205000
@<TRIPOS>BOND
     1     1    16 1   
     2     1    20 1   
     3     1    28 1   
     4     1    29 1   
     5     2     7 1   
     6     2    21 1   
     7     2    49 2   
     8     3    22 2   
     9     3    23 1   
    10     3    51 1   
    11     4    23 1   
    12     4    24 ar  
    13     4    26 ar  
    14     5    24 ar  
    15     5    25 ar  
    16     5    30 1   
    17     6    25 ar  
    18     6    26 ar  
    19     6    31 1   
    20     7    12 1   
    21     7    27 2   
    22     8    32 1   
    23     8    33 1   
    24     8    34 1   
    25     8    50 1   
    26     9    10 ar  
    27     9    14 ar  
    28     9    50 1   
    29    10    11 ar  
    30    10    35 1   
    31    11    12 ar  
    32    11    36 1   
    33    12    13 ar  
    34    13    14 ar  
    35    13    21 1   
    36    14    15 1   
    37    15    16 1   
    38    15    37 1   
    39    15    38 1   
    40    16    17 1   
    41    17    18 1   
    42    17    39 1   
    43    17    40 1   
    44    18    19 1   
    45    18    41 1   
    46    18    42 1   
    47    19    20 1   
    48    19    43 1   
    49    20    44 1   
    50    20    45 1   
    51    22    24 1   
    52    22    49 1   
    53    23    46 1   
    54    25    47 1   
    55    26    48 1   
    56    49    52 1   
@<TRIPOS>SUBSTRUCTURE
     1 8GR         1 TEMP              0 ****  ****    0 ROOT
