@<TRIPOS>MOLECULE
8GS
   41    44     1     0     0
SMALL
abcg2


@<TRIPOS>ATOM
      1 C5           4.5230     1.3830    -0.3110 cc         1 8GS       0.365400
      2 C8           3.1890    -0.2890    -0.2380 cc         1 8GS       0.325500
      3 C10          2.2480    -2.5410     0.0870 ca         1 8GS      -0.144000
      4 C13         -0.2450    -1.4240    -0.0210 ca         1 8GS       0.495900
      5 C17         -2.9440     1.0100    -0.2380 ca         1 8GS      -0.081300
      6 C20         -5.7070     1.0260    -0.2710 ca         1 8GS      -0.122000
      7 C21         -5.0480    -0.1900    -0.1770 ca         1 8GS      -0.032000
      8 C22         -3.6620    -0.1690    -0.1620 ca         1 8GS      -0.167600
      9 C1           2.8160     2.9500     1.4980 c3         1 8GS      -0.108100
     10 C2           2.2240     1.9760     0.4910 c3         1 8GS       0.094300
     11 C3           1.5700     2.6820    -0.6840 c3         1 8GS      -0.108100
     12 N4           3.2540     1.0470     0.0050 na         1 8GS      -0.342000
     13 N6           5.1920     0.3380    -0.7090 nd         1 8GS      -0.359000
     14 N7           4.3540    -0.7140    -0.6620 nd         1 8GS      -0.358000
     15 C9           2.0350    -1.1790    -0.0770 ca         1 8GS       0.350000
     16 C11          1.1300    -3.3530     0.1950 ca         1 8GS      -0.057000
     17 C12         -0.1400    -2.8090     0.1440 ca         1 8GS      -0.168000
     18 N14          0.8210    -0.6440    -0.1300 nb         1 8GS      -0.754000
     19 N15         -1.4600    -0.7470    -0.0850 n          1 8GS      -0.404300
     20 C16         -1.4840     0.7080    -0.2010 c5         1 8GS       0.151300
     21 C18         -3.5970     2.2270    -0.3330 ca         1 8GS      -0.102000
     22 C19         -4.9870     2.2190    -0.3470 ca         1 8GS      -0.081000
     23 C23         -2.7250    -1.2990    -0.0660 c          1 8GS       0.593600
     24 O24         -3.0070    -2.4770     0.0120 o          1 8GS      -0.517000
     25 H1           4.9130     2.3850    -0.2350 h5         1 8GS       0.062100
     26 H2           3.2480    -2.9460     0.1340 ha         1 8GS       0.153000
     27 H3          -6.7880     1.0540    -0.2840 ha         1 8GS       0.122000
     28 H4          -5.5970    -1.1210    -0.1160 ha         1 8GS       0.137000
     29 H5           3.4980     3.6630     1.0330 hc         1 8GS       0.048700
     30 H6           2.0070     3.5210     1.9520 hc         1 8GS       0.048700
     31 H7           3.3460     2.4290     2.2950 hc         1 8GS       0.048700
     32 H8           1.4840     1.3630     0.9990 h1         1 8GS       0.085700
     33 H9           2.2900     3.3000    -1.2230 hc         1 8GS       0.048700
     34 H10          1.1410     1.9640    -1.3820 hc         1 8GS       0.048700
     35 H11          0.7690     3.3300    -0.3280 hc         1 8GS       0.048700
     36 H12          1.2460    -4.4200     0.3250 ha         1 8GS       0.127000
     37 H13         -1.0080    -3.4380     0.2300 ha         1 8GS       0.160000
     38 H14         -0.9710     1.0340    -1.1070 h1         1 8GS       0.074700
     39 H15         -0.9870     1.1750     0.6510 h1         1 8GS       0.074700
     40 H16         -3.0500     3.1590    -0.3940 ha         1 8GS       0.121000
     41 H17         -5.5230     3.1560    -0.4200 ha         1 8GS       0.118000
@<TRIPOS>BOND
     1     1    12 1   
     2     1    13 2   
     3     1    25 1   
     4     2    12 1   
     5     2    14 2   
     6     2    15 1   
     7     3    15 ar  
     8     3    16 ar  
     9     3    26 1   
    10     4    17 ar  
    11     4    18 ar  
    12     4    19 1   
    13     5     8 ar  
    14     5    20 1   
    15     5    21 ar  
    16     6     7 ar  
    17     6    22 ar  
    18     6    27 1   
    19     7     8 ar  
    20     7    28 1   
    21     8    23 1   
    22     9    10 1   
    23     9    29 1   
    24     9    30 1   
    25     9    31 1   
    26    10    11 1   
    27    10    12 1   
    28    10    32 1   
    29    11    33 1   
    30    11    34 1   
    31    11    35 1   
    32    13    14 1   
    33    15    18 ar  
    34    16    17 ar  
    35    16    36 1   
    36    17    37 1   
    37    19    20 1   
    38    19    23 1   
    39    20    38 1   
    40    20    39 1   
    41    21    22 ar  
    42    21    40 1   
    43    22    41 1   
    44    23    24 2   
@<TRIPOS>SUBSTRUCTURE
     1 8GS         1 TEMP              0 ****  ****    0 ROOT
