@<TRIPOS>MOLECULE
8GS
   41    44     1     0     0
SMALL
No Charge or Current Charge


@<TRIPOS>ATOM
      1 C5           4.7160     1.3550     0.1910 cc         1 8GS       0.365400
      2 C8           3.3120    -0.3440     0.0890 cc         1 8GS       0.325500
      3 C10          2.2630    -2.6210    -0.0760 ca         1 8GS      -0.144000
      4 C13         -0.2450    -1.4650    -0.0950 ca         1 8GS       0.495900
      5 C17         -3.0170     1.0190    -0.0470 ca         1 8GS      -0.081300
      6 C20         -5.8170     1.0480    -0.0940 ca         1 8GS      -0.122000
      7 C21         -5.1330    -0.1850    -0.1290 ca         1 8GS      -0.032000
      8 C22         -3.7300    -0.1600    -0.1050 ca         1 8GS      -0.167600
      9 C1           2.6280     3.2530     1.1810 c3         1 8GS      -0.108100
     10 C2           2.2660     2.0280     0.3100 c3         1 8GS       0.094300
     11 C3           1.7710     2.4620    -1.0850 c3         1 8GS      -0.108100
     12 N4           3.3730     1.0480     0.2060 na         1 8GS      -0.342000
     13 N6           5.4270     0.2460     0.1070 nd         1 8GS      -0.359000
     14 N7           4.5570    -0.8080     0.0440 nd         1 8GS      -0.358000
     15 C9           2.0980    -1.2200     0.0040 ca         1 8GS       0.350000
     16 C11          1.1420    -3.4560    -0.1640 ca         1 8GS      -0.057000
     17 C12         -0.1300    -2.8690    -0.1720 ca         1 8GS      -0.168000
     18 N14          0.8490    -0.6760    -0.0090 nb         1 8GS      -0.754000
     19 N15         -1.4850    -0.7390    -0.0930 n          1 8GS      -0.404300
     20 C16         -1.5210     0.7660    -0.0300 c5         1 8GS       0.151300
     21 C18         -3.6850     2.2540    -0.0120 ca         1 8GS      -0.102000
     22 C19         -5.0960     2.2620    -0.0360 ca         1 8GS      -0.081000
     23 C23         -2.7810    -1.2880    -0.1310 c          1 8GS       0.593600
     24 O24         -3.0960    -2.4680    -0.1740 o          1 8GS      -0.517000
     25 H1           5.1030     2.3650     0.2490 h5         1 8GS       0.062100
     26 H2           3.2560    -3.0610    -0.0700 ha         1 8GS       0.153000
     27 H3          -6.9050     1.0630    -0.1120 ha         1 8GS       0.122000
     28 H4          -5.6770    -1.1260    -0.1740 ha         1 8GS       0.137000
     29 H5           3.4050     3.8650     0.7080 hc         1 8GS       0.048700
     30 H6           1.7470     3.8860     1.3350 hc         1 8GS       0.048700
     31 H7           2.9880     2.9330     2.1670 hc         1 8GS       0.048700
     32 H8           1.4310     1.5450     0.8320 h1         1 8GS       0.085700
     33 H9           2.5630     2.9850    -1.6340 hc         1 8GS       0.048700
     34 H10          1.4630     1.5920    -1.6770 hc         1 8GS       0.048700
     35 H11          0.9090     3.1350    -0.9990 hc         1 8GS       0.048700
     36 H12          1.2570    -4.5370    -0.2250 ha         1 8GS       0.127000
     37 H13         -0.9940    -3.5150    -0.2440 ha         1 8GS       0.160000
     38 H14         -1.0280     1.2230    -0.8990 h1         1 8GS       0.074700
     39 H15         -1.0600     1.1490     0.8900 h1         1 8GS       0.074700
     40 H16         -3.1260     3.1860     0.0330 ha         1 8GS       0.121000
     41 H17         -5.6310     3.2090    -0.0100 ha         1 8GS       0.118000
@<TRIPOS>BOND
     1     1    12 1   
     2     1    13 2   
     3     1    25 1   
     4     2    12 1   
     5     2    14 2   
     6     2    15 1   
     7     3    15 ar  
     8     3    16 ar  
     9     3    26 1   
    10     4    17 ar  
    11     4    18 ar  
    12     4    19 1   
    13     5     8 ar  
    14     5    20 1   
    15     5    21 ar  
    16     6     7 ar  
    17     6    22 ar  
    18     6    27 1   
    19     7     8 ar  
    20     7    28 1   
    21     8    23 1   
    22     9    10 1   
    23     9    29 1   
    24     9    30 1   
    25     9    31 1   
    26    10    11 1   
    27    10    12 1   
    28    10    32 1   
    29    11    33 1   
    30    11    34 1   
    31    11    35 1   
    32    13    14 1   
    33    15    18 ar  
    34    16    17 ar  
    35    16    36 1   
    36    17    37 1   
    37    19    20 1   
    38    19    23 1   
    39    20    38 1   
    40    20    39 1   
    41    21    22 ar  
    42    21    40 1   
    43    22    41 1   
    44    23    24 2   
@<TRIPOS>SUBSTRUCTURE
     1 8GS         1 TEMP              0 ****  ****    0 ROOT
