@<TRIPOS>MOLECULE
8GU
   51    55     1     0     0
SMALL
No Charge or Current Charge


@<TRIPOS>ATOM
      1 C15         -2.9060     3.2760     0.6920 c6         1 8GU       0.167800
      2 C17          0.8170    -1.6190    -0.0420 cc         1 8GU      -0.095100
      3 C20          2.5650     0.8930     0.7970 cc         1 8GU      -0.096100
      4 C22          4.8470     0.9300     0.6120 ca         1 8GU      -0.106200
      5 C26          7.0930     0.2830     0.1650 ca         1 8GU      -0.154000
      6 C28          0.0990    -2.8370    -0.4700 c          1 8GU       0.595900
      7 C01         -6.1830    -1.2790     0.5190 c3         1 8GU       0.147900
      8 C03         -3.7140    -1.2630     0.3750 ca         1 8GU       0.224100
      9 C04         -3.6830    -2.5880    -0.1400 ca         1 8GU      -0.259000
     10 C05         -2.4600    -3.2090    -0.4560 ca         1 8GU       0.044000
     11 C06         -1.2920    -2.4750    -0.2410 ca         1 8GU      -0.301600
     12 C07         -1.3010    -1.1900     0.2590 ca         1 8GU       0.185100
     13 C08         -2.5080    -0.5470     0.5740 ca         1 8GU      -0.161300
     14 C09         -2.5050     0.8740     1.1270 c3         1 8GU       0.242100
     15 N10         -2.7270     1.9160     0.0950 n3         1 8GU      -0.717600
     16 C11         -1.6610     1.9520    -0.9580 c6         1 8GU       0.167800
     17 C12         -1.9280     3.0490    -2.0420 c6         1 8GU       0.155800
     18 N13         -2.1330     4.4030    -1.4520 n7         1 8GU      -0.864400
     19 C14         -3.1800     4.3730    -0.3910 c6         1 8GU       0.155800
     20 O16         -0.0440    -0.6260     0.4020 os         1 8GU      -0.219200
     21 C19          3.0110    -0.3260     0.2860 cd         1 8GU      -0.246800
     22 N21          3.7340     1.6630     0.9930 na         1 8GU      -0.208700
     23 C23          4.4510    -0.3020     0.1700 ca         1 8GU       0.358800
     24 N24          5.2630    -1.2770    -0.2780 nb         1 8GU      -0.626000
     25 C25          6.5870    -0.9670    -0.2740 ca         1 8GU       0.323900
     26 C27          6.2020     1.2770     0.6270 ca         1 8GU      -0.078000
     27 O29          0.5350    -3.8940    -0.9100 o          1 8GU      -0.511100
     28 H1          -3.7440     3.2720     1.4040 h1         1 8GU       0.036700
     29 H2          -2.0060     3.5600     1.2570 h1         1 8GU       0.036700
     30 H4           8.1630     0.4700     0.1440 ha         1 8GU       0.122000
     31 H5          -6.3470    -1.5310    -0.5360 h1         1 8GU       0.045033
     32 H6          -6.2520    -2.1960     1.1170 h1         1 8GU       0.045033
     33 H7          -6.9900    -0.6060     0.8360 h1         1 8GU       0.045033
     34 H8          -4.5970    -3.1510    -0.2990 ha         1 8GU       0.123000
     35 H9          -2.4270    -4.2230    -0.8530 ha         1 8GU       0.130000
     36 H10         -3.2870     0.9450     1.8960 h1         1 8GU       0.040700
     37 H11         -1.5530     1.0580     1.6440 h1         1 8GU       0.040700
     38 H13         -0.6820     2.1460    -0.4960 h1         1 8GU       0.036700
     39 H14         -1.5890     0.9810    -1.4680 h1         1 8GU       0.036700
     40 H15         -1.0850     3.0780    -2.7490 h1         1 8GU       0.036200
     41 H16         -2.8250     2.7670    -2.6140 h1         1 8GU       0.036200
     42 H17         -2.4220     5.0540    -2.1930 hn         1 8GU       0.410000
     43 H19         -4.1570     4.1740    -0.8550 h1         1 8GU       0.036200
     44 H20         -3.2420     5.3590     0.0940 h1         1 8GU       0.036200
     45 H22          3.7570     2.6120     1.3580 hn         1 8GU       0.356000
     46 H23          7.2650    -1.7410    -0.6330 h4         1 8GU       0.020100
     47 H24          6.5490     2.2490     0.9730 ha         1 8GU       0.121000
     48 C18          2.1780    -1.4770    -0.0860 cf         1 8GU      -0.043000
     49 O02         -4.9060    -0.6430     0.7010 os         1 8GU      -0.322100
     50 H3           1.5680     1.2590     1.0270 h4         1 8GU       0.231000
     51 H21          2.7150    -2.3510    -0.4650 ha         1 8GU       0.223000
@<TRIPOS>BOND
     1     1    15 1   
     2     1    19 1   
     3     1    28 1   
     4     1    29 1   
     5     2     6 1   
     6     2    20 1   
     7     2    48 2   
     8     3    21 2   
     9     3    22 1   
    10     3    50 1   
    11     4    22 1   
    12     4    23 ar  
    13     4    26 ar  
    14     5    25 ar  
    15     5    26 ar  
    16     5    30 1   
    17     6    11 1   
    18     6    27 2   
    19     7    31 1   
    20     7    32 1   
    21     7    33 1   
    22     7    49 1   
    23     8     9 ar  
    24     8    13 ar  
    25     8    49 1   
    26     9    10 ar  
    27     9    34 1   
    28    10    11 ar  
    29    10    35 1   
    30    11    12 ar  
    31    12    13 ar  
    32    12    20 1   
    33    13    14 1   
    34    14    15 1   
    35    14    36 1   
    36    14    37 1   
    37    15    16 1   
    38    16    17 1   
    39    16    38 1   
    40    16    39 1   
    41    17    18 1   
    42    17    40 1   
    43    17    41 1   
    44    18    19 1   
    45    18    42 1   
    46    19    43 1   
    47    19    44 1   
    48    21    23 1   
    49    21    48 1   
    50    22    45 1   
    51    23    24 ar  
    52    24    25 ar  
    53    25    46 1   
    54    26    47 1   
    55    48    51 1   
@<TRIPOS>SUBSTRUCTURE
     1 8GU         1 TEMP              0 ****  ****    0 ROOT
