@<TRIPOS>MOLECULE
8GU
   51    55     1     0     0
SMALL
bcc


@<TRIPOS>ATOM
      1 C15         -2.8900     3.2070     0.6860 c6         1 8GU       0.167800
      2 C17          0.8950    -1.7400    -0.1230 cc         1 8GU      -0.095100
      3 C20          2.5790     0.7860     0.7170 cc         1 8GU      -0.046100
      4 C22          4.8020     0.9000     0.6610 ca         1 8GU      -0.171500
      5 C26          7.0410     0.2840     0.3360 ca         1 8GU      -0.237300
      6 C28          0.1110    -2.9210    -0.5380 c          1 8GU       0.595900
      7 C01         -5.9390    -1.0080     0.5370 c3         1 8GU       0.124700
      8 C03         -3.5710    -1.1310     0.3320 ca         1 8GU       0.224100
      9 C04         -3.6410    -2.4430    -0.1750 ca         1 8GU      -0.277000
     10 C05         -2.4880    -3.1320    -0.4960 ca         1 8GU       0.026000
     11 C06         -1.2630    -2.5090    -0.3070 ca         1 8GU      -0.301600
     12 C07         -1.2250    -1.2110     0.1970 ca         1 8GU       0.185100
     13 C08         -2.3410    -0.4780     0.5360 ca         1 8GU      -0.161300
     14 C09         -2.2740     0.9250     1.0700 c3         1 8GU       0.242100
     15 N10         -2.6710     1.9070     0.0800 n3         1 8GU      -0.717600
     16 C11         -1.7280     2.0050    -1.0180 c6         1 8GU       0.167800
     17 C12         -2.2210     3.0010    -2.0510 c6         1 8GU       0.155800
     18 N13         -2.4160     4.2960    -1.4270 n7         1 8GU      -0.809200
     19 C14         -3.3840     4.1990    -0.3510 c6         1 8GU       0.155800
     20 O16          0.0460    -0.7500     0.3090 os         1 8GU      -0.219200
     21 C19          2.9940    -0.4470     0.2440 cd         1 8GU      -0.246800
     22 N21          3.6510     1.5730     0.9600 na         1 8GU      -0.158400
     23 C23          4.4290    -0.3800     0.2040 ca         1 8GU       0.424100
     24 N24          5.3060    -1.3060    -0.1750 nb         1 8GU      -0.626000
     25 C25          6.5820    -0.9650    -0.1050 ca         1 8GU       0.389200
     26 C27          6.1400     1.2550     0.7340 ca         1 8GU      -0.096000
     27 O29          0.5490    -3.9740    -0.9690 o          1 8GU      -0.511100
     28 H1          -3.6390     3.1070     1.4760 h1         1 8GU       0.036700
     29 H2          -1.9720     3.6020     1.1550 h1         1 8GU       0.036700
     30 H4           8.1040     0.4780     0.3620 ha         1 8GU       0.140000
     31 H5          -6.1660    -1.2680    -0.4990 h1         1 8GU       0.045033
     32 H6          -6.0450    -1.8980     1.1610 h1         1 8GU       0.045033
     33 H7          -6.6460    -0.2550     0.8740 h1         1 8GU       0.045033
     34 H8          -4.5960    -2.9250    -0.3260 ha         1 8GU       0.141000
     35 H9          -2.5460    -4.1390    -0.8900 ha         1 8GU       0.148000
     36 H10         -2.9500     1.0110     1.9230 h1         1 8GU       0.040700
     37 H11         -1.2640     1.1260     1.4610 h1         1 8GU       0.040700
     38 H13         -0.7250     2.3090    -0.6670 h1         1 8GU       0.036700
     39 H14         -1.6200     1.0290    -1.4960 h1         1 8GU       0.036700
     40 H15         -1.4800     3.0900    -2.8470 h1         1 8GU       0.036200
     41 H16         -3.1440     2.6050    -2.5060 h1         1 8GU       0.036200
     42 H17         -2.7380     4.9610    -2.1170 hn         1 8GU       0.354800
     43 H19         -4.3780     3.8760    -0.7000 h1         1 8GU       0.036200
     44 H20         -3.5060     5.1780     0.1180 h1         1 8GU       0.036200
     45 H22          3.5960     2.5150     1.3140 hn         1 8GU       0.305700
     46 H23          7.3010    -1.7160    -0.4130 h4         1 8GU       0.020100
     47 H24          6.4630     2.2270     1.0820 ha         1 8GU       0.139000
     48 C18          2.2250    -1.5900    -0.1460 cf         1 8GU       0.007000
     49 O02         -4.6530    -0.4260     0.6630 os         1 8GU      -0.298900
     50 H3           1.5860     1.1610     0.8990 h4         1 8GU       0.181000
     51 H21          2.7830    -2.4470    -0.5060 ha         1 8GU       0.173000
@<TRIPOS>BOND
     1     1    15 1   
     2     1    19 1   
     3     1    28 1   
     4     1    29 1   
     5     2     6 1   
     6     2    20 1   
     7     2    48 2   
     8     3    21 2   
     9     3    22 1   
    10     3    50 1   
    11     4    22 1   
    12     4    23 ar  
    13     4    26 ar  
    14     5    25 ar  
    15     5    26 ar  
    16     5    30 1   
    17     6    11 1   
    18     6    27 2   
    19     7    31 1   
    20     7    32 1   
    21     7    33 1   
    22     7    49 1   
    23     8     9 ar  
    24     8    13 ar  
    25     8    49 1   
    26     9    10 ar  
    27     9    34 1   
    28    10    11 ar  
    29    10    35 1   
    30    11    12 ar  
    31    12    13 ar  
    32    12    20 1   
    33    13    14 1   
    34    14    15 1   
    35    14    36 1   
    36    14    37 1   
    37    15    16 1   
    38    16    17 1   
    39    16    38 1   
    40    16    39 1   
    41    17    18 1   
    42    17    40 1   
    43    17    41 1   
    44    18    19 1   
    45    18    42 1   
    46    19    43 1   
    47    19    44 1   
    48    21    23 1   
    49    21    48 1   
    50    22    45 1   
    51    23    24 ar  
    52    24    25 ar  
    53    25    46 1   
    54    26    47 1   
    55    48    51 1   
@<TRIPOS>SUBSTRUCTURE
     1 8GU         1 TEMP              0 ****  ****    0 ROOT
