@<TRIPOS>MOLECULE
8GV
   61    65     1     0     0
SMALL
No Charge or Current Charge


@<TRIPOS>ATOM
      1 N1          -8.3660    -0.9800     0.1900 nc         1 8GV      -0.359000
      2 N3          -7.6650     0.1980     0.0790 nc         1 8GV      -0.359000
      3 C4          -5.7090     2.3510    -0.1410 ca         1 8GV      -0.145000
      4 C5          -3.3860     2.9720    -0.2850 ca         1 8GV      -0.168000
      5 C6           1.9830     1.1170    -0.2460 ca         1 8GV      -0.068000
      6 C7          -7.4880    -1.9630     0.2990 cd         1 8GV       0.364400
      7 C8           0.6010     0.8740    -0.1930 ca         1 8GV      -0.130600
      8 C10          2.8610     0.0180    -0.1820 ca         1 8GV       0.142100
      9 C13         -6.3620    -0.0780     0.1200 cd         1 8GV       0.326500
     10 C15         -1.4300    -0.3870    -0.0430 c5         1 8GV       0.159300
     11 C17          7.7180    -1.2630    -0.4490 c6         1 8GV       0.130800
     12 C20         -5.1090    -3.4810     1.3070 c3         1 8GV      -0.108600
     13 C21         -4.4240    -2.6420    -1.0020 c3         1 8GV      -0.108600
     14 C1          -4.7360     3.3500    -0.2750 ca         1 8GV      -0.058000
     15 C2           0.9430    -1.5100    -0.0140 ca         1 8GV      -0.061000
     16 C3           2.3370    -1.2980    -0.0660 ca         1 8GV      -0.178000
     17 C9           0.0880    -0.4000    -0.0800 ca         1 8GV      -0.126300
     18 N2          -3.9990     0.6580    -0.0310 nb         1 8GV      -0.758000
     19 N4          -6.2070    -1.4560     0.2800 na         1 8GV      -0.340000
     20 N5          -1.7070     1.0890    -0.1580 n          1 8GV      -0.403300
     21 N6           9.0960    -0.6830    -0.4280 n3         1 8GV      -0.710600
     22 O2           6.8820     0.5770     0.9620 os         1 8GV      -0.442000
     23 O3           4.2160     0.2740    -0.2360 os         1 8GV      -0.328100
     24 C11         -5.3170     0.9990    -0.0170 ca         1 8GV       0.351000
     25 C12         -3.0470     1.6080    -0.1620 ca         1 8GV       0.497900
     26 C23          5.2000    -0.7780    -0.1730 c3         1 8GV       0.167600
     27 C14         -0.5160     1.8370    -0.2410 c          1 8GV       0.593600
     28 C16          9.3050     0.1450     0.8000 c6         1 8GV       0.121800
     29 C18          8.1840     1.2120     0.9720 c6         1 8GV       0.155600
     30 C19          6.6260    -0.1640    -0.2600 c6         1 8GV       0.164300
     31 H1          -6.7590     2.6270    -0.1330 ha         1 8GV       0.154000
     32 H2          -2.6380     3.7450    -0.3920 ha         1 8GV       0.160000
     33 H3           2.3690     2.1290    -0.3350 ha         1 8GV       0.153000
     34 H4          -7.7070    -3.0190     0.3950 h5         1 8GV       0.062100
     35 H5          -1.8560    -0.9490    -0.8840 h1         1 8GV       0.071200
     36 H6          -1.8110    -0.8030     0.8990 h1         1 8GV       0.071200
     37 H7           7.5400    -1.7810    -1.4020 h1         1 8GV       0.040200
     38 H8           7.6100    -2.0120     0.3500 h1         1 8GV       0.040200
     39 H9          -4.1360    -3.9630     1.4600 hc         1 8GV       0.048533
     40 H10         -5.4970    -3.1870     2.2900 hc         1 8GV       0.048533
     41 H11         -5.7880    -4.2230     0.8710 hc         1 8GV       0.048533
     42 H12         -4.2660    -1.7540    -1.6250 hc         1 8GV       0.048533
     43 H13         -3.4660    -3.1680    -0.9130 hc         1 8GV       0.048533
     44 H14         -5.1320    -3.3010    -1.5180 hc         1 8GV       0.048533
     45 H15          9.9980    -2.2430    -1.5650 h1         1 8GV       0.034033
     46 H16         11.1430    -1.2260    -0.6630 h1         1 8GV       0.034033
     47 H17         10.1530    -2.4280     0.1990 h1         1 8GV       0.034033
     48 H19         -5.0220     4.3960    -0.3710 ha         1 8GV       0.127000
     49 H20          0.5390    -2.5160     0.0750 ha         1 8GV       0.119000
     50 H21          2.9930    -2.1620    -0.0140 ha         1 8GV       0.119000
     51 H23          5.1110    -1.3450     0.7620 h1         1 8GV       0.042700
     52 H24          5.0660    -1.4710    -1.0140 h1         1 8GV       0.042700
     53 H25          9.3210    -0.4950     1.6950 h1         1 8GV       0.043200
     54 H26         10.2770     0.6580     0.7550 h1         1 8GV       0.043200
     55 H27          8.2360     1.9470     0.1560 h1         1 8GV       0.055700
     56 H28          8.3170     1.7460     1.9230 h1         1 8GV       0.055700
     57 H29          6.6580     0.5260    -1.1160 h1         1 8GV       0.063700
     58 C24         -4.9580    -2.2460     0.3900 c3         1 8GV       0.092300
     59 O1          -0.3950     3.0490    -0.3330 o          1 8GV      -0.515000
     60 C22         10.1530    -1.6990    -0.6230 c3         1 8GV       0.151100
     61 H18         -4.2020    -1.6170     0.8760 h1         1 8GV       0.090700
@<TRIPOS>BOND
     1     1     2 1   
     2     1     6 2   
     3     2     9 2   
     4     3    14 ar  
     5     3    24 ar  
     6     3    31 1   
     7     4    14 ar  
     8     4    25 ar  
     9     4    32 1   
    10     5     7 ar  
    11     5     8 ar  
    12     5    33 1   
    13     6    19 1   
    14     6    34 1   
    15     7    17 ar  
    16     7    27 1   
    17     8    16 ar  
    18     8    23 1   
    19     9    19 1   
    20     9    24 1   
    21    10    17 1   
    22    10    20 1   
    23    10    35 1   
    24    10    36 1   
    25    11    21 1   
    26    11    30 1   
    27    11    37 1   
    28    11    38 1   
    29    12    39 1   
    30    12    40 1   
    31    12    41 1   
    32    12    58 1   
    33    13    42 1   
    34    13    43 1   
    35    13    44 1   
    36    13    58 1   
    37    14    48 1   
    38    15    16 ar  
    39    15    17 ar  
    40    15    49 1   
    41    16    50 1   
    42    18    24 ar  
    43    18    25 ar  
    44    19    58 1   
    45    20    25 1   
    46    20    27 1   
    47    21    28 1   
    48    21    60 1   
    49    22    29 1   
    50    22    30 1   
    51    23    26 1   
    52    26    30 1   
    53    26    51 1   
    54    26    52 1   
    55    27    59 2   
    56    28    29 1   
    57    28    53 1   
    58    28    54 1   
    59    29    55 1   
    60    29    56 1   
    61    30    57 1   
    62    45    60 1   
    63    46    60 1   
    64    47    60 1   
    65    58    61 1   
@<TRIPOS>SUBSTRUCTURE
     1 8GV         1 TEMP              0 ****  ****    0 ROOT
