@<TRIPOS>MOLECULE
8GV
   61    65     1     0     0
SMALL
bcc


@<TRIPOS>ATOM
      1 N1          -8.0890    -1.0490    -0.0680 nc         1 8GV      -0.359000
      2 N3          -7.4390     0.1250    -0.1550 nc         1 8GV      -0.359000
      3 C4          -5.5860     2.2970     0.0450 ca         1 8GV      -0.228300
      4 C5          -3.2750     2.9460    -0.0960 ca         1 8GV      -0.251300
      5 C6           1.9730     1.1110    -0.3490 ca         1 8GV      -0.086000
      6 C7          -7.1940    -1.9680     0.1650 cd         1 8GV       0.364400
      7 C8           0.6160     0.8640    -0.2960 ca         1 8GV      -0.130600
      8 C10          2.8320     0.0120    -0.3600 ca         1 8GV       0.142100
      9 C13         -6.1610    -0.0990     0.0250 cd         1 8GV       0.326500
     10 C15         -1.4020    -0.3380    -0.1960 c5         1 8GV       0.159300
     11 C17          7.5230    -1.2720    -0.4000 c6         1 8GV       0.130800
     12 C20         -4.9310    -3.3000     1.4660 c3         1 8GV      -0.108600
     13 C21         -4.1870    -2.6970    -0.8690 c3         1 8GV      -0.108600
     14 C1          -4.6130     3.2810    -0.0070 ca         1 8GV      -0.076000
     15 C2           0.9330    -1.5030    -0.2680 ca         1 8GV      -0.079000
     16 C3           2.3060    -1.2860    -0.3210 ca         1 8GV      -0.196000
     17 C9           0.0870    -0.4130    -0.2540 ca         1 8GV      -0.126300
     18 N2          -3.8800     0.6400    -0.0960 nb         1 8GV      -0.758000
     19 N4          -5.9590    -1.4280     0.2400 na         1 8GV      -0.310700
     20 N5          -1.6480     1.1020    -0.2000 n          1 8GV      -0.470300
     21 N6           8.8490    -0.6930    -0.3180 n3         1 8GV      -0.710600
     22 O2           6.6130     0.6100     0.8120 os         1 8GV      -0.395600
     23 O3           4.1470     0.2880    -0.4080 os         1 8GV      -0.304900
     24 C11         -5.1620     0.9740    -0.0060 ca         1 8GV       0.416300
     25 C12         -2.9520     1.5850    -0.1310 ca         1 8GV       0.563200
     26 C23          5.0810    -0.7720    -0.3440 c3         1 8GV       0.144400
     27 C14         -0.4850     1.8410    -0.2630 c          1 8GV       0.736100
     28 C16          8.9750     0.1120     0.8820 c6         1 8GV       0.121800
     29 C18          7.9010     1.1800     0.8980 c6         1 8GV       0.132400
     30 C19          6.4690    -0.1740    -0.3510 c6         1 8GV       0.141100
     31 H1          -6.6340     2.5410     0.1260 ha         1 8GV       0.172000
     32 H2          -2.5190     3.7110    -0.1300 ha         1 8GV       0.178000
     33 H3           2.3660     2.1190    -0.3790 ha         1 8GV       0.171000
     34 H4          -7.3960    -3.0200     0.2850 h5         1 8GV       0.062100
     35 H5          -1.8770    -0.8140    -1.0560 h1         1 8GV       0.071200
     36 H6          -1.8060    -0.7980     0.7070 h1         1 8GV       0.071200
     37 H7           7.4310    -1.8180    -1.3430 h1         1 8GV       0.040200
     38 H8           7.3420    -1.9970     0.4140 h1         1 8GV       0.040200
     39 H9          -3.9640    -3.7390     1.7090 hc         1 8GV       0.048533
     40 H10         -5.3730    -2.9300     2.3910 hc         1 8GV       0.048533
     41 H11         -5.5590    -4.1000     1.0740 hc         1 8GV       0.048533
     42 H12         -4.0420    -1.8850    -1.5810 hc         1 8GV       0.048533
     43 H13         -3.2270    -3.1920    -0.7190 hc         1 8GV       0.048533
     44 H14         -4.8750    -3.4220    -1.3080 hc         1 8GV       0.048533
     45 H15          9.7820    -2.2670    -1.3240 h1         1 8GV       0.034033
     46 H16         10.8620    -1.2410    -0.3810 h1         1 8GV       0.034033
     47 H17          9.8320    -2.4260     0.4400 h1         1 8GV       0.034033
     48 H19         -4.8960     4.3250     0.0300 ha         1 8GV       0.145000
     49 H20          0.5540    -2.5170    -0.2360 ha         1 8GV       0.137000
     50 H21          2.9590    -2.1470    -0.3330 ha         1 8GV       0.137000
     51 H23          4.9330    -1.3690     0.5640 h1         1 8GV       0.042700
     52 H24          4.9730    -1.4420    -1.2050 h1         1 8GV       0.042700
     53 H25          8.9040    -0.5000     1.7980 h1         1 8GV       0.043200
     54 H26          9.9570     0.5930     0.8940 h1         1 8GV       0.043200
     55 H27          8.0660     1.8790     0.0670 h1         1 8GV       0.055700
     56 H28          7.9410     1.7470     1.8280 h1         1 8GV       0.055700
     57 H29          6.5880     0.4560    -1.2460 h1         1 8GV       0.063700
     58 C24         -4.7160    -2.1810     0.4590 c3         1 8GV       0.063000
     59 O1          -0.3890     3.0510    -0.2840 o          1 8GV      -0.590500
     60 C22          9.8760    -1.7070    -0.3930 c3         1 8GV       0.151100
     61 H18         -4.0080    -1.4730     0.8780 h1         1 8GV       0.090700
@<TRIPOS>BOND
     1     1     2 1   
     2     1     6 2   
     3     2     9 2   
     4     3    14 ar  
     5     3    24 ar  
     6     3    31 1   
     7     4    14 ar  
     8     4    25 ar  
     9     4    32 1   
    10     5     7 ar  
    11     5     8 ar  
    12     5    33 1   
    13     6    19 1   
    14     6    34 1   
    15     7    17 ar  
    16     7    27 1   
    17     8    16 ar  
    18     8    23 1   
    19     9    19 1   
    20     9    24 1   
    21    10    17 1   
    22    10    20 1   
    23    10    35 1   
    24    10    36 1   
    25    11    21 1   
    26    11    30 1   
    27    11    37 1   
    28    11    38 1   
    29    12    39 1   
    30    12    40 1   
    31    12    41 1   
    32    12    58 1   
    33    13    42 1   
    34    13    43 1   
    35    13    44 1   
    36    13    58 1   
    37    14    48 1   
    38    15    16 ar  
    39    15    17 ar  
    40    15    49 1   
    41    16    50 1   
    42    18    24 ar  
    43    18    25 ar  
    44    19    58 1   
    45    20    25 1   
    46    20    27 1   
    47    21    28 1   
    48    21    60 1   
    49    22    29 1   
    50    22    30 1   
    51    23    26 1   
    52    26    30 1   
    53    26    51 1   
    54    26    52 1   
    55    27    59 2   
    56    28    29 1   
    57    28    53 1   
    58    28    54 1   
    59    29    55 1   
    60    29    56 1   
    61    30    57 1   
    62    45    60 1   
    63    46    60 1   
    64    47    60 1   
    65    58    61 1   
@<TRIPOS>SUBSTRUCTURE
     1 8GV         1 TEMP              0 ****  ****    0 ROOT
