@<TRIPOS>MOLECULE
8GW
   95    98     1     0     0
SMALL
No Charge or Current Charge


@<TRIPOS>ATOM
      1 C1         -13.3500    -9.6830   -16.4040 c          1 8GW       0.605100
      2 C11         -9.5430   -17.6590   -19.1320 c3         1 8GW       0.055700
      3 C12         -9.5280   -16.3830   -18.2270 c          1 8GW       0.585100
      4 C13         -7.8050   -15.2210   -19.6830 c5         1 8GW       0.130000
      5 C14         -9.0570   -13.9200   -17.9580 c5         1 8GW       0.057700
      6 C15        -10.4890   -13.3040   -18.0470 c          1 8GW       0.592100
      7 C16         -7.2340   -13.7980   -19.6310 cx         1 8GW      -0.119700
      8 C17        -11.9980   -11.8800   -16.6000 c3         1 8GW       0.072700
      9 C18         -6.5320   -13.3740   -18.3490 cx         1 8GW      -0.073000
     10 C19        -12.5100   -12.5340   -15.2860 c3         1 8GW      -0.076400
     11 C2         -16.9630    -8.2850   -19.6550 cx         1 8GW      -0.126900
     12 C20        -12.5790   -14.0900   -15.3010 c5         1 8GW      -0.158700
     13 C21        -13.5510   -14.7050   -16.3460 c5         1 8GW      -0.094400
     14 C22        -13.7490   -16.1340   -15.7700 c5         1 8GW       0.100000
     15 C23         -6.1000   -14.3840   -17.2700 c3         1 8GW      -0.066100
     16 C24        -13.0760   -14.7060   -13.9870 c          1 8GW       0.567000
     17 C25         -5.4940   -12.2560   -18.4390 c3         1 8GW      -0.066100
     18 C27         -7.3480   -19.4100   -14.4680 c3         1 8GW      -0.104767
     19 C28         -6.1110   -20.8120   -16.1960 c3         1 8GW      -0.104767
     20 C29         -8.0610   -21.7840   -14.9280 c3         1 8GW      -0.104767
     21 C3         -15.2210    -8.6230   -17.7040 c3         1 8GW       0.133000
     22 C30        -10.7890   -17.7720   -20.0850 c3         1 8GW      -0.040000
     23 C31        -10.7350   -19.1160   -20.8660 c3         1 8GW      -0.088433
     24 C32        -10.7840   -16.6200   -21.1250 c3         1 8GW      -0.088433
     25 C34         -7.9890   -13.0100   -18.5940 cx         1 8GW      -0.136700
     26 C4         -15.5340    -8.3350   -19.1650 cx         1 8GW      -0.152700
     27 C5         -16.0600    -9.4220   -20.0750 cx         1 8GW      -0.126900
     28 C7          -7.4890   -20.4960   -15.5640 c3         1 8GW       0.151400
     29 C8         -11.9320   -10.3240   -16.5450 c3         1 8GW       0.075300
     30 N10         -9.4030   -18.8220   -18.2440 ns         1 8GW      -0.507900
     31 N13         -8.9370   -15.1980   -18.7240 n          1 8GW      -0.392800
     32 N16        -10.6920   -12.4590   -16.9700 ns         1 8GW      -0.512900
     33 N2         -13.9110    -9.2510   -17.5840 ns         1 8GW      -0.488900
     34 N23        -13.7520   -15.8420   -14.3380 ns         1 8GW      -0.517900
     35 N8          -8.4420   -20.0640   -16.5950 ns         1 8GW      -0.518900
     36 O26        -13.1160   -14.2250   -12.8660 o          1 8GW      -0.554000
     37 O29         -7.4190   -18.1630   -17.4020 o          1 8GW      -0.657100
     38 O33        -10.0970   -16.3600   -17.1370 o          1 8GW      -0.629100
     39 O38        -11.3240   -13.4840   -18.9240 o          1 8GW      -0.595100
     40 O5         -13.9130    -9.5240   -15.3280 o          1 8GW      -0.607100
     41 O9         -11.2170    -9.8320   -17.7110 oh         1 8GW      -0.661000
     42 H1          -8.6450   -17.6370   -19.7590 h1         1 8GW       0.092700
     43 H2          -8.1590   -15.4680   -20.6910 h1         1 8GW       0.068700
     44 H3          -7.0580   -15.9780   -19.4060 h1         1 8GW       0.068700
     45 H4          -8.8500   -14.0960   -16.8940 h1         1 8GW       0.085700
     46 H5          -6.9470   -13.3050   -20.5570 hc         1 8GW       0.100700
     47 H6         -12.7220   -12.1360   -17.3860 h1         1 8GW       0.088700
     48 H7         -11.8600   -12.2110   -14.4630 hc         1 8GW       0.073700
     49 H8         -13.5070   -12.1420   -15.0540 hc         1 8GW       0.073700
     50 H9         -17.2170    -7.5370   -20.4030 hc         1 8GW       0.073450
     51 H10        -17.7580    -8.5060   -18.9460 hc         1 8GW       0.073450
     52 H11        -11.5820   -14.5090   -15.4780 hc         1 8GW       0.093700
     53 H12        -13.1490   -14.7190   -17.3640 hc         1 8GW       0.062200
     54 H13        -14.5040   -14.1630   -16.3740 hc         1 8GW       0.062200
     55 H14        -14.6850   -16.5920   -16.1160 h1         1 8GW       0.042700
     56 H15        -12.9150   -16.7960   -16.0410 h1         1 8GW       0.042700
     57 H16         -6.0140   -13.8930   -16.2940 hc         1 8GW       0.042367
     58 H17         -6.7910   -15.2240   -17.1440 hc         1 8GW       0.042367
     59 H18         -5.1200   -14.8120   -17.5120 hc         1 8GW       0.042367
     60 H19         -5.3990   -11.7280   -17.4820 hc         1 8GW       0.042367
     61 H20         -4.5070   -12.6550   -18.7050 hc         1 8GW       0.042367
     62 H21         -5.7640   -11.5140   -19.2000 hc         1 8GW       0.042367
     63 H22        -12.2460   -16.7420   -18.7910 hc         1 8GW       0.039700
     64 H23        -12.9820   -17.8540   -19.9510 hc         1 8GW       0.039700
     65 H24        -12.1630   -18.4930   -18.5170 hc         1 8GW       0.039700
     66 H25         -8.3270   -19.1490   -14.0500 hc         1 8GW       0.044700
     67 H26         -6.7140   -19.7670   -13.6480 hc         1 8GW       0.044700
     68 H27         -6.8920   -18.4940   -14.8620 hc         1 8GW       0.044700
     69 H28         -6.2120   -21.5470   -17.0040 hc         1 8GW       0.044700
     70 H29         -5.6410   -19.9130   -16.6110 hc         1 8GW       0.044700
     71 H30         -5.4260   -21.2260   -15.4460 hc         1 8GW       0.044700
     72 H31         -9.0420   -21.5960   -14.4750 hc         1 8GW       0.044700
     73 H32         -8.1800   -22.5740   -15.6800 hc         1 8GW       0.044700
     74 H33         -7.3940   -22.1630   -14.1440 hc         1 8GW       0.044700
     75 H34        -15.2250    -7.6860   -17.1310 h1         1 8GW       0.054200
     76 H35        -15.9790    -9.2940   -17.2780 h1         1 8GW       0.054200
     77 H36        -10.8300   -19.9790   -20.1960 hc         1 8GW       0.039700
     78 H37        -11.5510   -19.1790   -21.5970 hc         1 8GW       0.039700
     79 H38         -9.7880   -19.2140   -21.4120 hc         1 8GW       0.039700
     80 H39        -10.8550   -15.6400   -20.6410 hc         1 8GW       0.039700
     81 H40         -9.8690   -16.6400   -21.7300 hc         1 8GW       0.039700
     82 H41        -11.6360   -16.7080   -21.8100 hc         1 8GW       0.039700
     83 H42         -8.2230   -11.9680   -18.8000 hc         1 8GW       0.098700
     84 H43        -14.8440    -7.6180   -19.6040 hc         1 8GW       0.085700
     85 H44        -16.2480   -10.4030   -19.6450 hc         1 8GW       0.073450
     86 H45        -15.7070    -9.4360   -21.1030 hc         1 8GW       0.073450
     87 H46        -11.3780   -10.0420   -15.6400 h1         1 8GW       0.067700
     88 H47        -10.1920   -19.4340   -18.1220 hn         1 8GW       0.314500
     89 H48         -9.9290   -12.3780   -16.3070 hn         1 8GW       0.320500
     90 H49        -13.3400    -9.3700   -18.4130 hn         1 8GW       0.334500
     91 H50        -14.2440   -16.3640   -13.6220 hn         1 8GW       0.325500
     92 H51         -9.2660   -20.6340   -16.7250 hn         1 8GW       0.305500
     93 H52        -10.5010   -10.4820   -17.8900 ho         1 8GW       0.459000
     94 C26        -12.1210   -17.7120   -19.2860 c3         1 8GW      -0.088433
     95 C9          -8.3380   -18.9620   -17.4050 c          1 8GW       0.650100
@<TRIPOS>BOND
     1     1    29 1   
     2     1    33 1   
     3     1    40 2   
     4     2     3 1   
     5     2    22 1   
     6     2    30 1   
     7     2    42 1   
     8     3    31 1   
     9     3    38 2   
    10     4     7 1   
    11     4    31 1   
    12     4    43 1   
    13     4    44 1   
    14     5     6 1   
    15     5    25 1   
    16     5    31 1   
    17     5    45 1   
    18     6    32 1   
    19     6    39 2   
    20     7     9 1   
    21     7    25 1   
    22     7    46 1   
    23     8    10 1   
    24     8    29 1   
    25     8    32 1   
    26     8    47 1   
    27     9    15 1   
    28     9    17 1   
    29     9    25 1   
    30    10    12 1   
    31    10    48 1   
    32    10    49 1   
    33    11    26 1   
    34    11    27 1   
    35    11    50 1   
    36    11    51 1   
    37    12    13 1   
    38    12    16 1   
    39    12    52 1   
    40    13    14 1   
    41    13    53 1   
    42    13    54 1   
    43    14    34 1   
    44    14    55 1   
    45    14    56 1   
    46    15    57 1   
    47    15    58 1   
    48    15    59 1   
    49    16    34 1   
    50    16    36 2   
    51    17    60 1   
    52    17    61 1   
    53    17    62 1   
    54    18    28 1   
    55    18    66 1   
    56    18    67 1   
    57    18    68 1   
    58    19    28 1   
    59    19    69 1   
    60    19    70 1   
    61    19    71 1   
    62    20    28 1   
    63    20    72 1   
    64    20    73 1   
    65    20    74 1   
    66    21    26 1   
    67    21    33 1   
    68    21    75 1   
    69    21    76 1   
    70    22    23 1   
    71    22    24 1   
    72    22    94 1   
    73    23    77 1   
    74    23    78 1   
    75    23    79 1   
    76    24    80 1   
    77    24    81 1   
    78    24    82 1   
    79    25    83 1   
    80    26    27 1   
    81    26    84 1   
    82    27    85 1   
    83    27    86 1   
    84    28    35 1   
    85    29    41 1   
    86    29    87 1   
    87    30    88 1   
    88    30    95 1   
    89    32    89 1   
    90    33    90 1   
    91    34    91 1   
    92    35    92 1   
    93    35    95 1   
    94    37    95 2   
    95    41    93 1   
    96    63    94 1   
    97    64    94 1   
    98    65    94 1   
@<TRIPOS>SUBSTRUCTURE
     1 8GW         1 TEMP              0 ****  ****    0 ROOT
