@<TRIPOS>MOLECULE
8GW
   95    98     1     0     0
SMALL
abcg2


@<TRIPOS>ATOM
      1 C1         -13.7530    -9.9900   -16.2410 c          1 8GW       0.605100
      2 C11         -9.7180   -17.6340   -18.3170 c3         1 8GW       0.055700
      3 C12         -9.8310   -16.3010   -17.5800 c          1 8GW       0.585100
      4 C13         -8.3290   -15.1730   -19.2620 c5         1 8GW       0.130000
      5 C14         -9.2720   -13.9640   -17.3720 c5         1 8GW       0.057700
      6 C15        -10.6360   -13.3370   -17.6590 c          1 8GW       0.592100
      7 C16         -7.6060   -13.8560   -19.1470 cx         1 8GW      -0.119700
      8 C17        -12.5700   -12.1920   -16.6240 c3         1 8GW       0.072700
      9 C18         -6.7630   -13.5870   -17.9330 cx         1 8GW      -0.073000
     10 C19        -13.5780   -13.0520   -15.8630 c3         1 8GW      -0.076400
     11 C2         -15.7350    -7.2190   -19.8710 cx         1 8GW      -0.126900
     12 C20        -13.7580   -14.4310   -16.4740 c5         1 8GW      -0.158700
     13 C21        -14.4200   -14.4620   -17.8520 c5         1 8GW      -0.094400
     14 C22        -15.1320   -15.8160   -17.8880 c5         1 8GW       0.100000
     15 C23         -6.3110   -14.6860   -17.0000 c3         1 8GW      -0.066100
     16 C24        -14.6530   -15.3340   -15.6370 c          1 8GW       0.567000
     17 C25         -5.7220   -12.5030   -18.0970 c3         1 8GW      -0.066100
     18 C27         -5.0710   -19.0630   -15.9380 c3         1 8GW      -0.104767
     19 C28         -5.7010   -21.1230   -17.2370 c3         1 8GW      -0.104767
     20 C29         -6.1680   -20.9750   -14.7940 c3         1 8GW      -0.104767
     21 C3         -15.0290    -8.5480   -17.7640 c3         1 8GW       0.133000
     22 C30        -11.0560   -18.0850   -18.9590 c3         1 8GW      -0.040000
     23 C31        -10.7540   -19.3030   -19.8360 c3         1 8GW      -0.088433
     24 C32        -11.5790   -16.9560   -19.8490 c3         1 8GW      -0.088433
     25 C34         -8.1870   -13.1050   -17.9840 cx         1 8GW      -0.136700
     26 C4         -14.6850    -7.6010   -18.8770 cx         1 8GW      -0.152700
     27 C5         -14.6080    -8.1170   -20.2840 cx         1 8GW      -0.126900
     28 C7          -6.1010   -20.1820   -16.0980 c3         1 8GW       0.151400
     29 C8         -12.4470   -10.7580   -16.0570 c3         1 8GW       0.075300
     30 N10         -9.1770   -18.6180   -17.4120 ns         1 8GW      -0.507900
     31 N13         -9.1640   -15.2380   -18.0630 n          1 8GW      -0.392800
     32 N16        -11.2540   -12.8000   -16.5900 ns         1 8GW      -0.512900
     33 N2         -13.8620    -9.3240   -17.3930 ns         1 8GW      -0.488900
     34 N23        -15.3960   -16.0630   -16.4860 ns         1 8GW      -0.517900
     35 N8          -7.4470   -19.6390   -16.3080 ns         1 8GW      -0.518900
     36 O26        -14.6780   -15.3990   -14.4190 o          1 8GW      -0.554000
     37 O29         -7.0470   -18.4100   -18.1830 o          1 8GW      -0.657100
     38 O33        -10.4900   -16.2140   -16.5490 o          1 8GW      -0.629100
     39 O38        -11.0770   -13.3060   -18.7950 o          1 8GW      -0.595100
     40 O5         -14.6310   -10.0210   -15.3880 o          1 8GW      -0.607100
     41 O9         -11.4240   -10.0490   -16.7030 oh         1 8GW      -0.661000
     42 H1          -9.0100   -17.5470   -19.1390 h1         1 8GW       0.092700
     43 H2          -8.9370   -15.1860   -20.1700 h1         1 8GW       0.068700
     44 H3          -7.6460   -16.0220   -19.3000 h1         1 8GW       0.068700
     45 H4          -9.1240   -14.1070   -16.2980 h1         1 8GW       0.085700
     46 H5          -7.3600   -13.3510   -20.0740 hc         1 8GW       0.100700
     47 H6         -12.8600   -12.1140   -17.6740 h1         1 8GW       0.088700
     48 H7         -13.2500   -13.1480   -14.8230 hc         1 8GW       0.073700
     49 H8         -14.5440   -12.5450   -15.8400 hc         1 8GW       0.073700
     50 H9         -15.7410    -6.2010   -20.2370 hc         1 8GW       0.073450
     51 H10        -16.7200    -7.6580   -19.7630 hc         1 8GW       0.073450
     52 H11        -12.7890   -14.9440   -16.5230 hc         1 8GW       0.093700
     53 H12        -13.7130   -14.3460   -18.6710 hc         1 8GW       0.062200
     54 H13        -15.1540   -13.6550   -17.9290 hc         1 8GW       0.062200
     55 H14        -16.0580   -15.7870   -18.4620 h1         1 8GW       0.042700
     56 H15        -14.4960   -16.5960   -18.3160 h1         1 8GW       0.042700
     57 H16         -6.1080   -14.2770   -16.0080 hc         1 8GW       0.042367
     58 H17         -7.0290   -15.4940   -16.8810 hc         1 8GW       0.042367
     59 H18         -5.3820   -15.1290   -17.3650 hc         1 8GW       0.042367
     60 H19         -5.4880   -12.0410   -17.1360 hc         1 8GW       0.042367
     61 H20         -4.7960   -12.9150   -18.5030 hc         1 8GW       0.042367
     62 H21         -6.0560   -11.7130   -18.7710 hc         1 8GW       0.042367
     63 H22        -12.4340   -17.6270   -17.3170 hc         1 8GW       0.039700
     64 H23        -13.0190   -18.8160   -18.4730 hc         1 8GW       0.039700
     65 H24        -11.8130   -19.2800   -17.2880 hc         1 8GW       0.039700
     66 H25         -5.3670   -18.3750   -15.1440 hc         1 8GW       0.044700
     67 H26         -4.1040   -19.4900   -15.6670 hc         1 8GW       0.044700
     68 H27         -4.9410   -18.4940   -16.8550 hc         1 8GW       0.044700
     69 H28         -6.4230   -21.9350   -17.3370 hc         1 8GW       0.044700
     70 H29         -5.6390   -20.5980   -18.1880 hc         1 8GW       0.044700
     71 H30         -4.7240   -21.5660   -17.0330 hc         1 8GW       0.044700
     72 H31         -6.4480   -20.3360   -13.9550 hc         1 8GW       0.044700
     73 H32         -6.8910   -21.7910   -14.8600 hc         1 8GW       0.044700
     74 H33         -5.1950   -21.4120   -14.5730 hc         1 8GW       0.044700
     75 H34        -15.3850    -7.9940   -16.8930 h1         1 8GW       0.054200
     76 H35        -15.8450    -9.2090   -18.0750 h1         1 8GW       0.054200
     77 H36        -10.3660   -20.1350   -19.2480 hc         1 8GW       0.039700
     78 H37        -11.6620   -19.6440   -20.3370 hc         1 8GW       0.039700
     79 H38        -10.0190   -19.0650   -20.6070 hc         1 8GW       0.039700
     80 H39        -11.8660   -16.0720   -19.2760 hc         1 8GW       0.039700
     81 H40        -10.8370   -16.6520   -20.5900 hc         1 8GW       0.039700
     82 H41        -12.4670   -17.2880   -20.3900 hc         1 8GW       0.039700
     83 H42         -8.3660   -12.0370   -18.0290 hc         1 8GW       0.098700
     84 H43        -13.9740    -6.8250   -18.6090 hc         1 8GW       0.085700
     85 H44        -14.8310    -9.1640   -20.4490 hc         1 8GW       0.073450
     86 H45        -13.8440    -7.7150   -20.9360 hc         1 8GW       0.073450
     87 H46        -12.2680   -10.8270   -14.9740 h1         1 8GW       0.067700
     88 H47         -9.7360   -18.8360   -16.6010 hn         1 8GW       0.314500
     89 H48        -10.8650   -12.9900   -15.6770 hn         1 8GW       0.320500
     90 H49        -13.0920    -9.3590   -18.0440 hn         1 8GW       0.334500
     91 H50        -15.9910   -16.8120   -16.1680 hn         1 8GW       0.325500
     92 H51         -8.1760   -20.0550   -15.7500 hn         1 8GW       0.305500
     93 H52        -10.6380   -10.6070   -16.7270 ho         1 8GW       0.459000
     94 C26        -12.1320   -18.4660   -17.9410 c3         1 8GW      -0.088433
     95 C9          -7.8280   -18.8600   -17.3500 c          1 8GW       0.650100
@<TRIPOS>BOND
     1     1    29 1   
     2     1    33 1   
     3     1    40 2   
     4     2     3 1   
     5     2    22 1   
     6     2    30 1   
     7     2    42 1   
     8     3    31 1   
     9     3    38 2   
    10     4     7 1   
    11     4    31 1   
    12     4    43 1   
    13     4    44 1   
    14     5     6 1   
    15     5    25 1   
    16     5    31 1   
    17     5    45 1   
    18     6    32 1   
    19     6    39 2   
    20     7     9 1   
    21     7    25 1   
    22     7    46 1   
    23     8    10 1   
    24     8    29 1   
    25     8    32 1   
    26     8    47 1   
    27     9    15 1   
    28     9    17 1   
    29     9    25 1   
    30    10    12 1   
    31    10    48 1   
    32    10    49 1   
    33    11    26 1   
    34    11    27 1   
    35    11    50 1   
    36    11    51 1   
    37    12    13 1   
    38    12    16 1   
    39    12    52 1   
    40    13    14 1   
    41    13    53 1   
    42    13    54 1   
    43    14    34 1   
    44    14    55 1   
    45    14    56 1   
    46    15    57 1   
    47    15    58 1   
    48    15    59 1   
    49    16    34 1   
    50    16    36 2   
    51    17    60 1   
    52    17    61 1   
    53    17    62 1   
    54    18    28 1   
    55    18    66 1   
    56    18    67 1   
    57    18    68 1   
    58    19    28 1   
    59    19    69 1   
    60    19    70 1   
    61    19    71 1   
    62    20    28 1   
    63    20    72 1   
    64    20    73 1   
    65    20    74 1   
    66    21    26 1   
    67    21    33 1   
    68    21    75 1   
    69    21    76 1   
    70    22    23 1   
    71    22    24 1   
    72    22    94 1   
    73    23    77 1   
    74    23    78 1   
    75    23    79 1   
    76    24    80 1   
    77    24    81 1   
    78    24    82 1   
    79    25    83 1   
    80    26    27 1   
    81    26    84 1   
    82    27    85 1   
    83    27    86 1   
    84    28    35 1   
    85    29    41 1   
    86    29    87 1   
    87    30    88 1   
    88    30    95 1   
    89    32    89 1   
    90    33    90 1   
    91    34    91 1   
    92    35    92 1   
    93    35    95 1   
    94    37    95 2   
    95    41    93 1   
    96    63    94 1   
    97    64    94 1   
    98    65    94 1   
@<TRIPOS>SUBSTRUCTURE
     1 8GW         1 TEMP              0 ****  ****    0 ROOT
