@<TRIPOS>MOLECULE
8GX
   51    55     1     0     0
SMALL
No Charge or Current Charge


@<TRIPOS>ATOM
      1 C15          2.2770     3.0740     0.8170 c6         1 8GX       0.125800
      2 C17         -0.8940    -1.5230    -0.3060 cc         1 8GX      -0.097100
      3 C20         -2.4500     1.1800     0.2390 cc         1 8GX      -0.088100
      4 C22         -4.7370     1.3150     0.2080 ca         1 8GX      -0.126200
      5 C24         -5.4410    -0.8810    -0.4440 ca         1 8GX      -0.117000
      6 C28         -0.2440    -2.7930    -0.6900 c          1 8GX       0.595900
      7 C01          6.0190    -1.8070     0.9470 c3         1 8GX       0.149900
      8 C03          3.5840    -1.5770     0.5740 ca         1 8GX       0.209100
      9 C04          3.4920    -2.8850     0.0230 ca         1 8GX      -0.257000
     10 C05          2.2590    -3.3900    -0.4300 ca         1 8GX       0.045000
     11 C06          1.1430    -2.5590    -0.3160 ca         1 8GX      -0.304600
     12 C07          1.2120    -1.2880     0.2140 ca         1 8GX       0.201100
     13 C08          2.4290    -0.7620     0.6710 ca         1 8GX      -0.165300
     14 C09          2.4770     0.6460     1.2560 c3         1 8GX       0.236100
     15 N10          2.4330     1.7110     0.2250 n3         1 8GX      -0.715600
     16 C11          3.5980     1.6780    -0.7140 c6         1 8GX       0.125800
     17 C12          3.5150     2.7960    -1.8030 c6         1 8GX       0.147300
     18 N13          3.3540     4.1550    -1.2090 n7         1 8GX      -0.842400
     19 C14          2.1920     4.1900    -0.2740 c6         1 8GX       0.147300
     20 O16          0.0000    -0.6190     0.2470 os         1 8GX      -0.194200
     21 C19         -2.9850    -0.0520    -0.1300 cd         1 8GX      -0.148200
     22 N21         -3.5660     2.0200     0.4480 na         1 8GX      -0.201700
     23 C23         -4.4260     0.0380    -0.1500 ca         1 8GX      -0.045800
     24 C25         -6.7700    -0.4110    -0.3500 ca         1 8GX       0.306900
     25 N26         -7.0940     0.8660     0.0070 nb         1 8GX      -0.660000
     26 C27         -6.0790     1.7290     0.2860 ca         1 8GX       0.343900
     27 O29         -0.7230    -3.8000    -1.1950 o          1 8GX      -0.514100
     28 H1           1.3670     3.1180     1.4340 h1         1 8GX       0.036200
     29 H2           3.1250     3.2960     1.4820 h1         1 8GX       0.036200
     30 H4          -5.2290    -1.9060    -0.7310 ha         1 8GX       0.127000
     31 H5           6.8450    -1.2120     1.3540 h1         1 8GX       0.046700
     32 H6           5.9520    -2.7360     1.5290 h1         1 8GX       0.046700
     33 H7           6.2600    -2.0580    -0.0930 h1         1 8GX       0.046700
     34 H8           4.3660    -3.5230    -0.0600 ha         1 8GX       0.124000
     35 H9           2.1790    -4.3910    -0.8530 ha         1 8GX       0.131000
     36 H10          1.6190     0.7560     1.9330 h1         1 8GX       0.046700
     37 H11          3.3740     0.7620     1.8800 h1         1 8GX       0.046700
     38 H13          4.5370     1.7990    -0.1530 h1         1 8GX       0.036200
     39 H14          3.6540     0.7050    -1.2240 h1         1 8GX       0.036200
     40 H15          4.4220     2.7670    -2.4250 h1         1 8GX       0.056200
     41 H16          2.6600     2.5840    -2.4620 h1         1 8GX       0.056200
     42 H17          4.1990     4.3580    -0.6620 hn         1 8GX       0.401000
     43 H19          1.2610     4.0550    -0.8460 h1         1 8GX       0.056200
     44 H20          2.1350     5.1740     0.2130 h1         1 8GX       0.056200
     45 H22         -3.5190     2.9960     0.7290 hn         1 8GX       0.356000
     46 H23         -7.6050    -1.0770    -0.5660 h4         1 8GX       0.019100
     47 H24         -6.3500     2.7450     0.5710 h4         1 8GX       0.018100
     48 C18         -2.2260    -1.2600    -0.4730 cf         1 8GX      -0.045000
     49 O02          4.7880    -1.0670     1.0230 os         1 8GX      -0.343100
     50 H3          -1.4220     1.5130     0.3570 h4         1 8GX       0.248000
     51 H21         -2.8040    -2.0840    -0.8980 ha         1 8GX       0.206000
@<TRIPOS>BOND
     1     1    15 1   
     2     1    19 1   
     3     1    28 1   
     4     1    29 1   
     5     2     6 1   
     6     2    20 1   
     7     2    48 2   
     8     3    21 2   
     9     3    22 1   
    10     3    50 1   
    11     4    22 1   
    12     4    23 ar  
    13     4    26 ar  
    14     5    23 ar  
    15     5    24 ar  
    16     5    30 1   
    17     6    11 1   
    18     6    27 2   
    19     7    31 1   
    20     7    32 1   
    21     7    33 1   
    22     7    49 1   
    23     8     9 ar  
    24     8    13 ar  
    25     8    49 1   
    26     9    10 ar  
    27     9    34 1   
    28    10    11 ar  
    29    10    35 1   
    30    11    12 ar  
    31    12    13 ar  
    32    12    20 1   
    33    13    14 1   
    34    14    15 1   
    35    14    36 1   
    36    14    37 1   
    37    15    16 1   
    38    16    17 1   
    39    16    38 1   
    40    16    39 1   
    41    17    18 1   
    42    17    40 1   
    43    17    41 1   
    44    18    19 1   
    45    18    42 1   
    46    19    43 1   
    47    19    44 1   
    48    21    23 1   
    49    21    48 1   
    50    22    45 1   
    51    24    25 ar  
    52    24    46 1   
    53    25    26 ar  
    54    26    47 1   
    55    48    51 1   
@<TRIPOS>SUBSTRUCTURE
     1 8GX         1 TEMP              0 ****  ****    0 ROOT
