@<TRIPOS>MOLECULE
8GX
   51    55     1     0     0
SMALL
abcg2


@<TRIPOS>ATOM
      1 C15          1.8260     2.7890     0.9750 c6         1 8GX       0.125800
      2 C17         -0.7020    -1.7170    -0.2450 cc         1 8GX      -0.097100
      3 C20         -1.8830     1.1220     0.1550 cc         1 8GX      -0.088100
      4 C22         -4.0360     1.6560     0.0320 ca         1 8GX      -0.126200
      5 C24         -5.1060    -0.4060    -0.5500 ca         1 8GX      -0.117000
      6 C28         -0.0420    -2.9950    -0.5830 c          1 8GX       0.595900
      7 C01          6.0930    -1.7940     0.9520 c3         1 8GX       0.149900
      8 C03          3.7360    -1.6540     0.6330 ca         1 8GX       0.209100
      9 C04          3.6940    -2.9660     0.1170 ca         1 8GX      -0.257000
     10 C05          2.5050    -3.5180    -0.3130 ca         1 8GX       0.045000
     11 C06          1.3490    -2.7520    -0.2340 ca         1 8GX      -0.304600
     12 C07          1.4240    -1.4590     0.2740 ca         1 8GX       0.201100
     13 C08          2.5790    -0.8610     0.7340 ca         1 8GX      -0.165300
     14 C09          2.5500     0.5320     1.3020 c3         1 8GX       0.236100
     15 N10          2.0730     1.5080     0.3390 n3         1 8GX      -0.715600
     16 C11          2.9760     1.6570    -0.7880 c6         1 8GX       0.125800
     17 C12          2.4100     2.6520    -1.7910 c6         1 8GX       0.147300
     18 N13          2.0980     3.9480    -1.2120 n7         1 8GX      -0.842400
     19 C14          1.2690     3.7880    -0.0300 c6         1 8GX       0.147300
     20 O16          0.2190    -0.8480     0.2800 os         1 8GX      -0.194200
     21 C19         -2.5370    -0.0540    -0.1790 cd         1 8GX      -0.148200
     22 N21         -2.7740     2.1260     0.2770 na         1 8GX      -0.201700
     23 C23         -3.9280     0.2860    -0.2630 ca         1 8GX      -0.045800
     24 C25         -6.2850     0.3100    -0.5250 ca         1 8GX       0.306900
     25 N26         -6.3730     1.6190    -0.2420 nb         1 8GX      -0.660000
     26 C27         -5.2720     2.2910     0.0340 ca         1 8GX       0.343900
     27 O29         -0.5690    -3.9880    -1.0540 o          1 8GX      -0.514100
     28 H1           1.1090     2.6480     1.7900 h1         1 8GX       0.036200
     29 H2           2.7460     3.2050     1.4260 h1         1 8GX       0.036200
     30 H4          -5.1140    -1.4630    -0.7840 ha         1 8GX       0.127000
     31 H5           6.8630    -1.1190     1.3170 h1         1 8GX       0.046700
     32 H6           6.0930    -2.6970     1.5660 h1         1 8GX       0.046700
     33 H7           6.3180    -2.0640    -0.0820 h1         1 8GX       0.046700
     34 H8           4.5960    -3.5570     0.0510 ha         1 8GX       0.124000
     35 H9           2.4810    -4.5270    -0.7050 ha         1 8GX       0.131000
     36 H10          1.8630     0.5440     2.1530 h1         1 8GX       0.046700
     37 H11          3.5370     0.8030     1.7010 h1         1 8GX       0.046700
     38 H13          3.9770     1.9940    -0.4610 h1         1 8GX       0.036200
     39 H14          3.1100     0.6880    -1.2750 h1         1 8GX       0.036200
     40 H15          3.1150     2.7850    -2.6130 h1         1 8GX       0.056200
     41 H16          1.4910     2.2370    -2.2190 h1         1 8GX       0.056200
     42 H17          2.9620     4.4090    -0.9480 hn         1 8GX       0.401000
     43 H19          0.2760     3.4560    -0.3560 h1         1 8GX       0.056200
     44 H20          1.1370     4.7580     0.4530 h1         1 8GX       0.056200
     45 H22         -2.5390     3.0770     0.5130 hn         1 8GX       0.356000
     46 H23         -7.2210    -0.1900    -0.7430 h4         1 8GX       0.019100
     47 H24         -5.3660     3.3490     0.2600 h4         1 8GX       0.018100
     48 C18         -1.9760    -1.3490    -0.4360 cf         1 8GX      -0.045000
     49 O02          4.8690    -1.0870     1.0560 os         1 8GX      -0.343100
     50 H3          -0.8270     1.3070     0.2860 h4         1 8GX       0.248000
     51 H21         -2.6320    -2.1130    -0.8360 ha         1 8GX       0.206000
@<TRIPOS>BOND
     1     1    15 1   
     2     1    19 1   
     3     1    28 1   
     4     1    29 1   
     5     2     6 1   
     6     2    20 1   
     7     2    48 2   
     8     3    21 2   
     9     3    22 1   
    10     3    50 1   
    11     4    22 1   
    12     4    23 ar  
    13     4    26 ar  
    14     5    23 ar  
    15     5    24 ar  
    16     5    30 1   
    17     6    11 1   
    18     6    27 2   
    19     7    31 1   
    20     7    32 1   
    21     7    33 1   
    22     7    49 1   
    23     8     9 ar  
    24     8    13 ar  
    25     8    49 1   
    26     9    10 ar  
    27     9    34 1   
    28    10    11 ar  
    29    10    35 1   
    30    11    12 ar  
    31    12    13 ar  
    32    12    20 1   
    33    13    14 1   
    34    14    15 1   
    35    14    36 1   
    36    14    37 1   
    37    15    16 1   
    38    16    17 1   
    39    16    38 1   
    40    16    39 1   
    41    17    18 1   
    42    17    40 1   
    43    17    41 1   
    44    18    19 1   
    45    18    42 1   
    46    19    43 1   
    47    19    44 1   
    48    21    23 1   
    49    21    48 1   
    50    22    45 1   
    51    24    25 ar  
    52    24    46 1   
    53    25    26 ar  
    54    26    47 1   
    55    48    51 1   
@<TRIPOS>SUBSTRUCTURE
     1 8GX         1 TEMP              0 ****  ****    0 ROOT
