@<TRIPOS>MOLECULE
8GY
   52    55     1     0     0
SMALL
abcg2


@<TRIPOS>ATOM
      1 C5          -2.7370     7.6910    29.3310 ca         1 8GY       0.143100
      2 C6          -2.8210     8.8480    28.5340 ca         1 8GY      -0.121000
      3 C7          -2.0370     9.0100    27.4020 ca         1 8GY      -0.065000
      4 C8          -1.1510     7.9960    27.0600 ca         1 8GY      -0.123300
      5 C13         -1.0740     6.8600    27.8480 ca         1 8GY      -0.125600
      6 C15          1.4020     6.0890    25.2650 ca         1 8GY       0.494900
      7 C17          3.0160     4.5000    24.5180 ca         1 8GY      -0.055000
      8 C21          2.8000     7.4070    22.1860 cc         1 8GY       0.344500
      9 C24          2.9380     9.1280    20.8870 cc         1 8GY       0.373400
     10 C26          2.2800     9.6900    23.2570 c3         1 8GY       0.087300
     11 C28          0.8970    10.2880    23.0350 c3         1 8GY      -0.104100
     12 C1          -4.1350     7.0150    32.6120 c3         1 8GY      -0.106600
     13 C2          -3.5910     6.5210    31.2850 c3         1 8GY       0.174300
     14 C3          -4.4500     5.4270    30.6700 c3         1 8GY      -0.106600
     15 O4          -3.5520     7.6790    30.4160 os         1 8GY      -0.361100
     16 C9          -0.1940     7.8840    25.9150 c5         1 8GY       0.160300
     17 N10          0.4300     6.5720    26.1440 n          1 8GY      -0.407300
     18 C11         -0.0720     5.9400    27.2760 c          1 8GY       0.590600
     19 O12          0.2550     4.8420    27.7040 o          1 8GY      -0.523000
     20 C14         -1.8500     6.6730    28.9860 ca         1 8GY      -0.127000
     21 C16          2.0670     4.8700    25.4550 ca         1 8GY      -0.169000
     22 C18          3.2900     5.3250    23.4340 ca         1 8GY      -0.142000
     23 C19          2.5750     6.5140    23.3300 ca         1 8GY       0.350000
     24 N20          1.6510     6.8810    24.2240 nb         1 8GY      -0.751000
     25 N22          3.1880     6.9870    20.9970 nd         1 8GY      -0.359000
     26 N23          3.2740     8.0820    20.1730 nd         1 8GY      -0.362000
     27 N25          2.6290     8.7660    22.1600 na         1 8GY      -0.345000
     28 C29          3.3500    10.7570    23.4130 c3         1 8GY       0.146600
     29 O30          4.5860    10.1160    23.7150 oh         1 8GY      -0.656000
     30 H1          -3.5210     9.6180    28.8310 ha         1 8GY       0.132000
     31 H2          -2.1210     9.9100    26.8070 ha         1 8GY       0.122000
     32 H3           3.5520     3.5670    24.6390 ha         1 8GY       0.127000
     33 H4           2.9090    10.1460    20.5350 h5         1 8GY       0.057100
     34 H5           2.2680     9.0830    24.1560 h1         1 8GY       0.103700
     35 H6           0.6280    10.9210    23.8800 hc         1 8GY       0.050700
     36 H7           0.8690    10.8920    22.1260 hc         1 8GY       0.050700
     37 H8           0.1560     9.4930    22.9500 hc         1 8GY       0.050700
     38 H9          -4.1760     6.1900    33.3240 hc         1 8GY       0.049533
     39 H10         -3.4950     7.7970    33.0240 hc         1 8GY       0.049533
     40 H11         -5.1430     7.4150    32.4870 hc         1 8GY       0.049533
     41 H12         -2.5680     6.1660    31.4300 h1         1 8GY       0.046700
     42 H13         -4.4550     4.5520    31.3220 hc         1 8GY       0.049533
     43 H14         -5.4770     5.7790    30.5530 hc         1 8GY       0.049533
     44 H15         -4.0740     5.1200    29.6940 hc         1 8GY       0.049533
     45 H16          0.5630     8.6690    25.9170 h1         1 8GY       0.072200
     46 H17         -0.6900     7.9040    24.9440 h1         1 8GY       0.072200
     47 H18         -1.7520     5.7640    29.5610 ha         1 8GY       0.141000
     48 H19          1.8420     4.2520    26.3070 ha         1 8GY       0.160000
     49 H20          4.0340     5.0660    22.6960 ha         1 8GY       0.150000
     50 H21          3.0420    11.4180    24.2290 h1         1 8GY       0.030700
     51 H22          3.4330    11.3600    22.5030 h1         1 8GY       0.030700
     52 H23          5.2840    10.7830    23.7210 ho         1 8GY       0.450000
@<TRIPOS>BOND
     1     1     2 ar  
     2     1    15 1   
     3     1    20 ar  
     4     2     3 ar  
     5     2    30 1   
     6     3     4 ar  
     7     3    31 1   
     8     4     5 ar  
     9     4    16 1   
    10     5    18 1   
    11     5    20 ar  
    12     6    17 1   
    13     6    21 ar  
    14     6    24 ar  
    15     7    21 ar  
    16     7    22 ar  
    17     7    32 1   
    18     8    23 1   
    19     8    25 2   
    20     8    27 1   
    21     9    26 2   
    22     9    27 1   
    23     9    33 1   
    24    10    11 1   
    25    10    27 1   
    26    10    28 1   
    27    10    34 1   
    28    11    35 1   
    29    11    36 1   
    30    11    37 1   
    31    12    13 1   
    32    12    38 1   
    33    12    39 1   
    34    12    40 1   
    35    13    14 1   
    36    13    15 1   
    37    13    41 1   
    38    14    42 1   
    39    14    43 1   
    40    14    44 1   
    41    16    17 1   
    42    16    45 1   
    43    16    46 1   
    44    17    18 1   
    45    18    19 2   
    46    20    47 1   
    47    21    48 1   
    48    22    23 ar  
    49    22    49 1   
    50    23    24 ar  
    51    25    26 1   
    52    28    29 1   
    53    28    50 1   
    54    28    51 1   
    55    29    52 1   
@<TRIPOS>SUBSTRUCTURE
     1 8GY         1 TEMP              0 ****  ****    0 ROOT
