@<TRIPOS>MOLECULE
8GY
   52    55     1     0     0
SMALL
No Charge or Current Charge


@<TRIPOS>ATOM
      1 C5          -2.4410     7.7940    29.5950 ca         1 8GY       0.143100
      2 C6          -2.3080     9.0410    28.9440 ca         1 8GY      -0.121000
      3 C7          -1.4940     9.1790    27.8010 ca         1 8GY      -0.065000
      4 C8          -0.8120     8.0510    27.3220 ca         1 8GY      -0.123300
      5 C13         -0.9340     6.8350    27.9610 ca         1 8GY      -0.125600
      6 C15          1.3970     5.9320    25.2000 ca         1 8GY       0.494900
      7 C17          2.6710     4.1430    24.1680 ca         1 8GY      -0.055000
      8 C21          3.2430     7.4100    22.3100 cc         1 8GY       0.344500
      9 C24          3.6650     9.2110    21.1070 cc         1 8GY       0.373400
     10 C26          2.1620     9.6400    23.1170 c3         1 8GY       0.087300
     11 C28          0.6760     9.6020    22.6970 c3         1 8GY      -0.104100
     12 C1          -4.2240     6.8970    32.7290 c3         1 8GY      -0.106600
     13 C2          -3.6440     6.5120    31.3550 c3         1 8GY       0.174300
     14 C3          -4.6860     5.8020    30.4620 c3         1 8GY      -0.106600
     15 O4          -3.2510     7.7420    30.7140 os         1 8GY      -0.361100
     16 C9           0.1140     7.9600    26.1230 c5         1 8GY       0.160300
     17 N10          0.4990     6.5050    26.1660 n          1 8GY      -0.407300
     18 C11         -0.1070     5.8390    27.2480 c          1 8GY       0.590600
     19 O12          0.0080     4.6660    27.5680 o          1 8GY      -0.523000
     20 C14         -1.7370     6.6680    29.1020 ca         1 8GY      -0.127000
     21 C16          1.7860     4.5770    25.1630 ca         1 8GY      -0.169000
     22 C18          3.1440     5.0790    23.2390 ca         1 8GY      -0.142000
     23 C19          2.7290     6.4270    23.3190 ca         1 8GY       0.350000
     24 N20          1.8650     6.8210    24.2970 nb         1 8GY      -0.751000
     25 N22          4.0450     7.0780    21.3010 nd         1 8GY      -0.359000
     26 N23          4.3040     8.1960    20.5550 nd         1 8GY      -0.362000
     27 N25          2.9840     8.7800    22.2240 na         1 8GY      -0.345000
     28 C29          2.6700    11.1070    23.2250 c3         1 8GY       0.146600
     29 O30          4.0320    11.1500    23.6790 oh         1 8GY      -0.656000
     30 H1          -2.8440     9.9040    29.3300 ha         1 8GY       0.132000
     31 H2          -1.3970    10.1410    27.3020 ha         1 8GY       0.122000
     32 H3           2.9840     3.1010    24.1170 ha         1 8GY       0.127000
     33 H4           3.6590    10.2360    20.7580 h5         1 8GY       0.057100
     34 H5           2.2340     9.2420    24.1360 h1         1 8GY       0.103700
     35 H6           0.0600    10.1740    23.4010 hc         1 8GY       0.050700
     36 H7           0.5440    10.0310    21.6970 hc         1 8GY       0.050700
     37 H8           0.3000     8.5720    22.6790 hc         1 8GY       0.050700
     38 H9          -4.5480     6.0030    33.2730 hc         1 8GY       0.049533
     39 H10         -3.4670     7.4080    33.3350 hc         1 8GY       0.049533
     40 H11         -5.0870     7.5640    32.6160 hc         1 8GY       0.049533
     41 H12         -2.7800     5.8560    31.5240 h1         1 8GY       0.046700
     42 H13         -5.0530     4.8930    30.9530 hc         1 8GY       0.049533
     43 H14         -5.5440     6.4570    30.2700 hc         1 8GY       0.049533
     44 H15         -4.2540     5.5100    29.4990 hc         1 8GY       0.049533
     45 H16          0.9850     8.6180    26.2380 h1         1 8GY       0.072200
     46 H17         -0.4110     8.2150    25.1920 h1         1 8GY       0.072200
     47 H18         -1.7960     5.6940    29.5770 ha         1 8GY       0.141000
     48 H19          1.4190     3.8520    25.8760 ha         1 8GY       0.160000
     49 H20          3.8300     4.7560    22.4620 ha         1 8GY       0.150000
     50 H21          2.0250    11.6520    23.9280 h1         1 8GY       0.030700
     51 H22          2.5770    11.6000    22.2480 h1         1 8GY       0.030700
     52 H23          4.2790    12.0980    23.7650 ho         1 8GY       0.450000
@<TRIPOS>BOND
     1     1     2 ar  
     2     1    15 1   
     3     1    20 ar  
     4     2     3 ar  
     5     2    30 1   
     6     3     4 ar  
     7     3    31 1   
     8     4     5 ar  
     9     4    16 1   
    10     5    18 1   
    11     5    20 ar  
    12     6    17 1   
    13     6    21 ar  
    14     6    24 ar  
    15     7    21 ar  
    16     7    22 ar  
    17     7    32 1   
    18     8    23 1   
    19     8    25 2   
    20     8    27 1   
    21     9    26 2   
    22     9    27 1   
    23     9    33 1   
    24    10    11 1   
    25    10    27 1   
    26    10    28 1   
    27    10    34 1   
    28    11    35 1   
    29    11    36 1   
    30    11    37 1   
    31    12    13 1   
    32    12    38 1   
    33    12    39 1   
    34    12    40 1   
    35    13    14 1   
    36    13    15 1   
    37    13    41 1   
    38    14    42 1   
    39    14    43 1   
    40    14    44 1   
    41    16    17 1   
    42    16    45 1   
    43    16    46 1   
    44    17    18 1   
    45    18    19 2   
    46    20    47 1   
    47    21    48 1   
    48    22    23 ar  
    49    22    49 1   
    50    23    24 ar  
    51    25    26 1   
    52    28    29 1   
    53    28    50 1   
    54    28    51 1   
    55    29    52 1   
@<TRIPOS>SUBSTRUCTURE
     1 8GY         1 TEMP              0 ****  ****    0 ROOT
