@<TRIPOS>MOLECULE
8GZ
   18    18     1     0     0
SMALL
No Charge or Current Charge


@<TRIPOS>ATOM
      1 N           -9.2030   -19.9680   -38.0010 n7         1 8GZ      -0.850400
      2 CA         -10.5140   -19.6730   -37.3750 c5         1 8GZ       0.156500
      3 CB         -10.3210   -20.3300   -35.9870 c5         1 8GZ      -0.092400
      4 CG          -8.9010   -19.8280   -35.6010 c5         1 8GZ      -0.114400
      5 CD          -8.2160   -19.5540   -36.9740 c5         1 8GZ       0.144800
      6 C          -11.7220   -20.2200   -38.1930 c3         1 8GZ       0.143600
      7 O          -12.9680   -19.9240   -37.5410 oh         1 8GZ      -0.656000
      8 H1          -9.1360   -20.9860   -38.1160 hn         1 8GZ       0.400000
      9 H3         -10.6490   -18.5860   -37.2680 h1         1 8GZ       0.083700
     10 H4         -11.0860   -20.0220   -35.2650 hc         1 8GZ       0.055700
     11 H5         -10.3540   -21.4250   -36.0520 hc         1 8GZ       0.055700
     12 H6          -8.3550   -20.5690   -35.0070 hc         1 8GZ       0.046700
     13 H7          -8.9500   -18.9090   -35.0040 hc         1 8GZ       0.046700
     14 H8          -7.2690   -20.1020   -37.0830 h1         1 8GZ       0.050700
     15 H9          -7.9900   -18.4830   -37.0740 h1         1 8GZ       0.050700
     16 H10        -11.6100   -21.3050   -38.3190 h1         1 8GZ       0.018700
     17 H11        -11.7060   -19.7650   -39.1920 h1         1 8GZ       0.018700
     18 H12        -13.6820   -20.2920   -38.1080 ho         1 8GZ       0.443000
@<TRIPOS>BOND
     1     1     2 1   
     2     1     5 1   
     3     1     8 1   
     4     2     3 1   
     5     2     6 1   
     6     2     9 1   
     7     3     4 1   
     8     3    10 1   
     9     3    11 1   
    10     4     5 1   
    11     4    12 1   
    12     4    13 1   
    13     5    14 1   
    14     5    15 1   
    15     6     7 1   
    16     6    16 1   
    17     6    17 1   
    18     7    18 1   
@<TRIPOS>SUBSTRUCTURE
     1 8GZ         1 TEMP              0 ****  ****    0 ROOT
