@<TRIPOS>MOLECULE
8GZ
   18    18     1     0     0
SMALL
bcc


@<TRIPOS>ATOM
      1 N           -9.2590   -19.3600   -37.9580 n7         1 8GZ      -0.795200
      2 CA         -10.6190   -19.4090   -37.3950 c5         1 8GZ       0.156500
      3 CB         -10.4450   -19.6620   -35.8840 c5         1 8GZ      -0.092400
      4 CG          -9.0670   -20.3070   -35.7810 c5         1 8GZ      -0.114400
      5 CD          -8.3060   -19.5530   -36.8650 c5         1 8GZ       0.144800
      6 C          -11.4370   -20.4950   -38.0780 c3         1 8GZ       0.120400
      7 O          -12.7780   -20.3850   -37.6630 oh         1 8GZ      -0.593800
      8 H1          -9.1410   -20.1050   -38.6330 hn         1 8GZ       0.344800
      9 H3         -11.1280   -18.4530   -37.5620 h1         1 8GZ       0.083700
     10 H4         -10.4510   -18.7140   -35.3400 hc         1 8GZ       0.055700
     11 H5         -11.2490   -20.2720   -35.4700 hc         1 8GZ       0.055700
     12 H6          -9.1160   -21.3720   -36.0250 hc         1 8GZ       0.046700
     13 H7          -8.6210   -20.2140   -34.7900 hc         1 8GZ       0.046700
     14 H8          -7.4150   -20.0720   -37.2220 h1         1 8GZ       0.050700
     15 H9          -7.9790   -18.5820   -36.4780 h1         1 8GZ       0.050700
     16 H10        -11.0100   -21.4760   -37.8250 h1         1 8GZ       0.018700
     17 H11        -11.3440   -20.3790   -39.1680 h1         1 8GZ       0.018700
     18 H12        -13.2660   -21.1320   -38.0210 ho         1 8GZ       0.404000
@<TRIPOS>BOND
     1     1     2 1   
     2     1     5 1   
     3     1     8 1   
     4     2     3 1   
     5     2     6 1   
     6     2     9 1   
     7     3     4 1   
     8     3    10 1   
     9     3    11 1   
    10     4     5 1   
    11     4    12 1   
    12     4    13 1   
    13     5    14 1   
    14     5    15 1   
    15     6     7 1   
    16     6    16 1   
    17     6    17 1   
    18     7    18 1   
@<TRIPOS>SUBSTRUCTURE
     1 8GZ         1 TEMP              0 ****  ****    0 ROOT
