@<TRIPOS>MOLECULE
8H0
   56    60     1     0     0
SMALL
abcg2


@<TRIPOS>ATOM
      1 C11          3.6430     0.9830     0.1940 ca         1 8H0       0.358000
      2 C12          4.4410    -0.0770    -0.2010 ca         1 8H0      -0.175000
      3 C13          5.8240     0.1350    -0.1760 ca         1 8H0      -0.008200
      4 C14          6.4180     1.3430     0.2220 ca         1 8H0      -0.264900
      5 C15          5.5890     2.4030     0.6160 ca         1 8H0      -0.005000
      6 C16          4.2330     2.2160     0.5990 ca         1 8H0      -0.199000
      7 N18          8.0430    -0.1040    -0.3410 nc         1 8H0      -0.525100
      8 C21         -0.8490    -0.6140    -0.0320 ca         1 8H0       0.059000
      9 C22         -2.2360    -0.2790     0.0580 ca         1 8H0       0.161100
     10 C27         -5.7140     2.2810    -1.1690 c6         1 8H0       0.160300
     11 C30         -3.8580     2.8410     0.9700 c6         1 8H0      -0.091900
     12 C01         -5.5200    -5.1080     0.8450 c3         1 8H0      -0.090100
     13 C02         -4.4140    -4.0670     0.9260 c3         1 8H0      -0.073400
     14 C04         -2.8080    -2.6210    -0.3570 ca         1 8H0      -0.049300
     15 C05         -1.4850    -2.9530    -0.4560 ca         1 8H0      -0.103000
     16 C06         -0.5020    -1.9540    -0.2950 ca         1 8H0      -0.155000
     17 C07          0.8810    -2.2000    -0.3870 ca         1 8H0       0.158900
     18 N08          1.7870    -1.2740    -0.2320 nb         1 8H0      -0.209000
     19 C09          1.3420    -0.0280     0.0310 ca         1 8H0       0.373900
     20 N10          2.2550     0.9690     0.2240 nu         1 8H0      -0.929900
     21 C17          7.8120     1.1110     0.0900 cd         1 8H0       0.363800
     22 N19          6.8480    -0.6870    -0.4980 na         1 8H0      -0.066400
     23 N20          0.0830     0.3370     0.1310 nb         1 8H0      -0.216000
     24 C23         -3.1690    -1.2720    -0.1060 ca         1 8H0      -0.193000
     25 O24         -2.4930     1.0120     0.3110 os         1 8H0      -0.316100
     26 C25         -3.8340     1.4940     0.2660 c6         1 8H0       0.171300
     27 C26         -4.3330     1.6370    -1.1660 c6         1 8H0      -0.091900
     28 N28         -5.6590     3.5690    -0.5010 n7         1 8H0      -0.861400
     29 C29         -5.2570     3.4370     0.8870 c6         1 8H0       0.160300
     30 H1           4.0240    -1.0200    -0.5130 ha         1 8H0       0.153000
     31 H2           6.0030     3.3510     0.9310 ha         1 8H0       0.119000
     32 H3           3.5820     3.0270     0.9040 ha         1 8H0       0.113000
     33 H5          -6.0460     2.4270    -2.1980 h1         1 8H0       0.031450
     34 H6          -6.4330     1.5890    -0.6980 h1         1 8H0       0.031450
     35 H7          -3.5670     2.7250     2.0170 hc         1 8H0       0.063450
     36 H8          -3.1420     3.5190     0.4970 hc         1 8H0       0.063450
     37 H9          -5.1750    -6.0160     0.3470 hc         1 8H0       0.033033
     38 H10         -5.8730    -5.3890     1.8380 hc         1 8H0       0.033033
     39 H11         -6.3780    -4.7310     0.2840 hc         1 8H0       0.033033
     40 H12         -4.7790    -3.1830     1.4550 hc         1 8H0       0.042200
     41 H13         -3.5800    -4.4550     1.5190 hc         1 8H0       0.042200
     42 H14         -3.5130    -4.5380    -0.9740 hc         1 8H0       0.047200
     43 H15         -4.7230    -3.2710    -1.0520 hc         1 8H0       0.047200
     44 H16         -1.1800    -3.9740    -0.6560 ha         1 8H0       0.118000
     45 H17          1.2350    -3.2040    -0.5980 h4         1 8H0       0.024100
     46 H19          1.8220     1.8500     0.4570 hn         1 8H0       0.513000
     47 H20          8.6290     1.7860     0.2950 h4         1 8H0       0.046800
     48 H22         -4.2270    -1.0440    -0.0480 ha         1 8H0       0.120000
     49 H23         -4.4920     0.8110     0.8200 h1         1 8H0       0.037700
     50 H24         -4.3840     0.6690    -1.6710 hc         1 8H0       0.063450
     51 H25         -3.6370     2.2660    -1.7270 hc         1 8H0       0.063450
     52 H26         -6.5670     4.0120    -0.5480 hn         1 8H0       0.414000
     53 H28         -5.9470     2.8040     1.4690 h1         1 8H0       0.031450
     54 H29         -5.2610     4.4230     1.3550 h1         1 8H0       0.031450
     55 H4           6.7980    -1.6350    -0.8330 hn         1 8H0       0.374000
     56 C03         -3.8920    -3.6550    -0.4520 c3         1 8H0      -0.033100
@<TRIPOS>BOND
     1     1     2 ar  
     2     1     6 ar  
     3     1    20 1   
     4     2     3 ar  
     5     2    30 1   
     6     3     4 ar  
     7     3    22 1   
     8     4     5 ar  
     9     4    21 1   
    10     5     6 ar  
    11     5    31 1   
    12     6    32 1   
    13     7    21 2   
    14     7    22 1   
    15     8     9 ar  
    16     8    16 ar  
    17     8    23 ar  
    18     9    24 ar  
    19     9    25 1   
    20    10    27 1   
    21    10    28 1   
    22    10    33 1   
    23    10    34 1   
    24    11    26 1   
    25    11    29 1   
    26    11    35 1   
    27    11    36 1   
    28    12    13 1   
    29    12    37 1   
    30    12    38 1   
    31    12    39 1   
    32    13    40 1   
    33    13    41 1   
    34    13    56 1   
    35    14    15 ar  
    36    14    24 ar  
    37    14    56 1   
    38    15    16 ar  
    39    15    44 1   
    40    16    17 ar  
    41    17    18 ar  
    42    17    45 1   
    43    18    19 ar  
    44    19    20 1   
    45    19    23 ar  
    46    20    46 1   
    47    21    47 1   
    48    22    55 1   
    49    24    48 1   
    50    25    26 1   
    51    26    27 1   
    52    26    49 1   
    53    27    50 1   
    54    27    51 1   
    55    28    29 1   
    56    28    52 1   
    57    29    53 1   
    58    29    54 1   
    59    42    56 1   
    60    43    56 1   
@<TRIPOS>SUBSTRUCTURE
     1 8H0         1 TEMP              0 ****  ****    0 ROOT
