@<TRIPOS>MOLECULE
8H0
   56    60     1     0     0
SMALL
No Charge or Current Charge


@<TRIPOS>ATOM
      1 C11          3.7150     0.9840     0.3570 ca         1 8H0       0.358000
      2 C12          4.4620     0.1400    -0.4970 ca         1 8H0      -0.175000
      3 C13          5.8510     0.3050    -0.5320 ca         1 8H0      -0.008200
      4 C14          6.4770     1.2460     0.2150 ca         1 8H0      -0.264900
      5 C15          5.7820     2.1150     1.0620 ca         1 8H0      -0.005000
      6 C16          4.3790     1.9730     1.1210 ca         1 8H0      -0.199000
      7 N18          8.0890     0.1420    -0.9890 nc         1 8H0      -0.525100
      8 C21         -0.8740    -0.6110     0.1610 ca         1 8H0       0.059000
      9 C22         -2.2460    -0.2650     0.2250 ca         1 8H0       0.161100
     10 C27         -5.6600     2.3020    -1.4220 c6         1 8H0       0.160300
     11 C30         -3.9890     3.0010     0.8930 c6         1 8H0      -0.091900
     12 C01         -5.5100    -5.3130     0.8420 c3         1 8H0      -0.090100
     13 C02         -4.4250    -4.2280     0.9900 c3         1 8H0      -0.073400
     14 C04         -2.8620    -2.6040    -0.1870 ca         1 8H0      -0.049300
     15 C05         -1.5020    -2.9460    -0.2570 ca         1 8H0      -0.103000
     16 C06         -0.5180    -1.9590    -0.0830 ca         1 8H0      -0.155000
     17 C07          0.8510    -2.2840    -0.1420 ca         1 8H0       0.158900
     18 N08          1.8040    -1.3500     0.0250 nb         1 8H0      -0.209000
     19 C09          1.3790    -0.0910     0.2400 ca         1 8H0       0.373900
     20 N10          2.3230     0.9080     0.4510 nu         1 8H0      -0.929900
     21 C17          7.8830     1.1210    -0.0890 cd         1 8H0       0.363800
     22 N19          6.8070    -0.3710    -1.2670 na         1 8H0      -0.066400
     23 N20          0.1000     0.3170     0.3250 nb         1 8H0      -0.216000
     24 C23         -3.2300    -1.2690     0.0580 ca         1 8H0      -0.193000
     25 O24         -2.5740     1.0610     0.4750 os         1 8H0      -0.316100
     26 C25         -3.9070     1.5830     0.2840 c6         1 8H0       0.171300
     27 C26         -4.2780     1.6390    -1.2220 c6         1 8H0      -0.091900
     28 N28         -5.6990     3.6480    -0.8040 n7         1 8H0      -0.861400
     29 C29         -5.3780     3.6290     0.6420 c6         1 8H0       0.160300
     30 H1           3.9820    -0.6020    -1.1240 ha         1 8H0       0.153000
     31 H2           6.2990     2.8710     1.6510 ha         1 8H0       0.119000
     32 H3           3.8080     2.6320     1.7690 ha         1 8H0       0.113000
     33 H5          -5.8780     2.3850    -2.4970 h1         1 8H0       0.031450
     34 H6          -6.4390     1.6690    -0.9710 h1         1 8H0       0.031450
     35 H7          -3.7930     2.9570     1.9720 hc         1 8H0       0.063450
     36 H8          -3.2110     3.6420     0.4560 hc         1 8H0       0.063450
     37 H9          -5.1290    -6.1670     0.2690 hc         1 8H0       0.033033
     38 H10         -5.8250    -5.6750     1.8280 hc         1 8H0       0.033033
     39 H11         -6.3910    -4.9130     0.3250 hc         1 8H0       0.033033
     40 H12         -4.8230    -3.4050     1.5970 hc         1 8H0       0.042200
     41 H13         -3.5730    -4.6470     1.5400 hc         1 8H0       0.042200
     42 H14         -3.5470    -4.4990    -0.9730 hc         1 8H0       0.047200
     43 H15         -4.7860    -3.2590    -0.9140 hc         1 8H0       0.047200
     44 H16         -1.2110    -3.9790    -0.4410 ha         1 8H0       0.118000
     45 H17          1.1890    -3.3030    -0.3220 h4         1 8H0       0.024100
     46 H19          1.9020     1.7560     0.8280 hn         1 8H0       0.513000
     47 H20          8.7280     1.6810     0.2900 h4         1 8H0       0.046800
     48 H22         -4.2880    -1.0340     0.1230 ha         1 8H0       0.120000
     49 H23         -4.6240     0.9500     0.8240 h1         1 8H0       0.037700
     50 H24         -4.2930     0.6330    -1.6590 hc         1 8H0       0.063450
     51 H25         -3.5150     2.2080    -1.7710 hc         1 8H0       0.063450
     52 H26         -6.6400     4.0450    -0.9310 hn         1 8H0       0.414000
     53 H28         -6.1460     3.0530     1.1800 h1         1 8H0       0.031450
     54 H29         -5.3960     4.6570     1.0350 h1         1 8H0       0.031450
     55 H4           6.6480    -1.1330    -1.9240 hn         1 8H0       0.374000
     56 C03         -3.9330    -3.6720    -0.3630 c3         1 8H0      -0.033100
@<TRIPOS>BOND
     1     1     2 ar  
     2     1     6 ar  
     3     1    20 1   
     4     2     3 ar  
     5     2    30 1   
     6     3     4 ar  
     7     3    22 1   
     8     4     5 ar  
     9     4    21 1   
    10     5     6 ar  
    11     5    31 1   
    12     6    32 1   
    13     7    21 2   
    14     7    22 1   
    15     8     9 ar  
    16     8    16 ar  
    17     8    23 ar  
    18     9    24 ar  
    19     9    25 1   
    20    10    27 1   
    21    10    28 1   
    22    10    33 1   
    23    10    34 1   
    24    11    26 1   
    25    11    29 1   
    26    11    35 1   
    27    11    36 1   
    28    12    13 1   
    29    12    37 1   
    30    12    38 1   
    31    12    39 1   
    32    13    40 1   
    33    13    41 1   
    34    13    56 1   
    35    14    15 ar  
    36    14    24 ar  
    37    14    56 1   
    38    15    16 ar  
    39    15    44 1   
    40    16    17 ar  
    41    17    18 ar  
    42    17    45 1   
    43    18    19 ar  
    44    19    20 1   
    45    19    23 ar  
    46    20    46 1   
    47    21    47 1   
    48    22    55 1   
    49    24    48 1   
    50    25    26 1   
    51    26    27 1   
    52    26    49 1   
    53    27    50 1   
    54    27    51 1   
    55    28    29 1   
    56    28    52 1   
    57    29    53 1   
    58    29    54 1   
    59    42    56 1   
    60    43    56 1   
@<TRIPOS>SUBSTRUCTURE
     1 8H0         1 TEMP              0 ****  ****    0 ROOT
