@<TRIPOS>MOLECULE
8H1
   63    67     1     0     0
SMALL
No Charge or Current Charge


@<TRIPOS>ATOM
      1 C1          -6.0440     3.8530     0.4650 c3         1 8H1       0.143900
      2 N1          -0.9260    -1.7060    -0.6050 nb         1 8H1      -0.779000
      3 O1          -6.9730     2.7580     0.5560 os         1 8H1      -0.318100
      4 C2          -6.5870     1.4320     0.4300 ca         1 8H1       0.122100
      5 N2          -5.6060    -2.6190     0.0740 nb         1 8H1      -0.670000
      6 C3          -5.2430     1.0640     0.2010 ca         1 8H1      -0.163000
      7 O3           3.7610     0.3450    -0.3150 os         1 8H1      -0.317100
      8 C4          -4.8780    -0.3000     0.0760 ca         1 8H1      -0.069000
      9 N4           1.0230     2.6900    -1.1770 nb         1 8H1      -0.647000
     10 C5          -3.5380    -0.7190    -0.1550 ca         1 8H1       0.076000
     11 N5           6.3960    -0.8340    -1.0360 n8         1 8H1      -0.982200
     12 C6          -2.4300     0.1480    -0.2780 ca         1 8H1      -0.211000
     13 C7          -1.1340    -0.3760    -0.5110 cp         1 8H1       0.477500
     14 C8          -1.9650    -2.5090    -0.4870 ca         1 8H1       0.660900
     15 C9          -3.2790    -2.0940    -0.2670 ca         1 8H1      -0.211000
     16 C10         -4.3320    -3.0040    -0.1440 ca         1 8H1       0.386900
     17 C11         -5.8820    -1.3010     0.1830 ca         1 8H1       0.284000
     18 C12         -7.2140    -0.9240     0.4110 ca         1 8H1      -0.170000
     19 C13         -7.5780     0.4320     0.5350 ca         1 8H1       0.138100
     20 C14         -9.9680    -0.1250     0.8820 c3         1 8H1       0.142900
     21 C15          0.0790     0.4940    -0.6480 cp         1 8H1      -0.165500
     22 C16          1.3930    -0.0010    -0.4140 ca         1 8H1      -0.073000
     23 C17          2.4970     0.8530    -0.5570 ca         1 8H1       0.089100
     24 C18          2.2610     2.1960    -0.9400 ca         1 8H1       0.254900
     25 C19         -0.0320     1.8550    -1.0330 ca         1 8H1       0.311900
     26 C20          4.9430     1.1620    -0.4370 c3         1 8H1       0.168600
     27 C21          6.1960     0.3000    -0.0940 c3         1 8H1       0.164500
     28 C22          7.4830     1.1590    -0.0280 c3         1 8H1      -0.074100
     29 C23          8.7290     0.3630     0.3570 ca         1 8H1      -0.088300
     30 C24          9.7520     0.1350    -0.5850 ca         1 8H1      -0.108500
     31 C25         10.8980    -0.5970    -0.2260 ca         1 8H1      -0.106000
     32 C26         11.0290    -1.1030     1.0780 ca         1 8H1      -0.107000
     33 C27         10.0150    -0.8760     2.0230 ca         1 8H1      -0.106000
     34 C28          8.8700    -0.1440     1.6640 ca         1 8H1      -0.108500
     35 H1          -6.5690     4.8070     0.5940 h1         1 8H1       0.043033
     36 H1A         -5.2760     3.7790     1.2450 h1         1 8H1       0.043033
     37 H1B         -5.5520     3.8670    -0.5160 h1         1 8H1       0.043033
     38 H3          -4.4940     1.8400     0.1200 ha         1 8H1       0.123000
     39 HN3         -0.5960    -3.8290    -0.9610 hn         1 8H1       0.488500
     40 HN3A        -2.1960    -4.4350    -1.0300 hn         1 8H1       0.488500
     41 HN5A         7.3130    -1.2510    -0.8360 hn         1 8H1       0.398000
     42 H6          -2.5430     1.2180    -0.1800 ha         1 8H1       0.126000
     43 H10         -4.1710    -4.0780    -0.2190 h4         1 8H1       0.008100
     44 H12         -7.9580    -1.7090     0.4880 ha         1 8H1       0.139000
     45 H14        -10.9150     0.4000     1.0570 h1         1 8H1       0.044367
     46 H14A       -10.0730    -0.7180    -0.0350 h1         1 8H1       0.044367
     47 H14B        -9.7970    -0.8060     1.7260 h1         1 8H1       0.044367
     48 H16          1.5560    -1.0340    -0.1170 ha         1 8H1       0.156000
     49 H18          3.0780     2.9050    -1.0660 h4         1 8H1       0.019100
     50 H19         -1.0020     2.2960    -1.2540 h4         1 8H1       0.018100
     51 H20          5.0380     1.5610    -1.4550 h1         1 8H1       0.034200
     52 H20A         4.8900     2.0090     0.2610 h1         1 8H1       0.034200
     53 H21          6.0340    -0.1250     0.9080 h1         1 8H1       0.077700
     54 H22          7.6320     1.6590    -0.9930 hc         1 8H1       0.052700
     55 H22A         7.3320     1.9630     0.7030 hc         1 8H1       0.052700
     56 H24          9.6610     0.5230    -1.5980 ha         1 8H1       0.111000
     57 H25         11.6830    -0.7710    -0.9590 ha         1 8H1       0.114500
     58 H26         11.9160    -1.6690     1.3550 ha         1 8H1       0.115000
     59 H27         10.1170    -1.2650     3.0340 ha         1 8H1       0.114500
     60 H28          8.0910     0.0290     2.4040 ha         1 8H1       0.111000
     61 O2          -8.8900     0.8200     0.7600 os         1 8H1      -0.317100
     62 N3          -1.5490    -3.7690    -0.6260 nv         1 8H1      -1.070900
     63 HN5          6.5080    -0.4630    -1.9850 hn         1 8H1       0.398000
@<TRIPOS>BOND
     1     1     3 1   
     2     1    35 1   
     3     1    36 1   
     4     1    37 1   
     5     2    13 ar  
     6     2    14 ar  
     7     3     4 1   
     8     4     6 ar  
     9     4    19 ar  
    10     5    16 ar  
    11     5    17 ar  
    12     6     8 ar  
    13     6    38 1   
    14     7    23 1   
    15     7    26 1   
    16     8    10 ar  
    17     8    17 ar  
    18     9    24 ar  
    19     9    25 ar  
    20    10    12 ar  
    21    10    15 ar  
    22    11    27 1   
    23    11    41 1   
    24    11    63 1   
    25    12    13 ar  
    26    12    42 1   
    27    13    21 1   
    28    14    15 ar  
    29    14    62 1   
    30    15    16 ar  
    31    16    43 1   
    32    17    18 ar  
    33    18    19 ar  
    34    18    44 1   
    35    19    61 1   
    36    20    45 1   
    37    20    46 1   
    38    20    47 1   
    39    20    61 1   
    40    21    22 ar  
    41    21    25 ar  
    42    22    23 ar  
    43    22    48 1   
    44    23    24 ar  
    45    24    49 1   
    46    25    50 1   
    47    26    27 1   
    48    26    51 1   
    49    26    52 1   
    50    27    28 1   
    51    27    53 1   
    52    28    29 1   
    53    28    54 1   
    54    28    55 1   
    55    29    30 ar  
    56    29    34 ar  
    57    30    31 ar  
    58    30    56 1   
    59    31    32 ar  
    60    31    57 1   
    61    32    33 ar  
    62    32    58 1   
    63    33    34 ar  
    64    33    59 1   
    65    34    60 1   
    66    39    62 1   
    67    40    62 1   
@<TRIPOS>SUBSTRUCTURE
     1 8H1         1 TEMP              0 ****  ****    0 ROOT
