@<TRIPOS>MOLECULE
8H1
   63    67     1     0     0
SMALL
abcg2


@<TRIPOS>ATOM
      1 C1          -6.0310     3.7480     0.2450 c3         1 8H1       0.143900
      2 N1          -0.8090    -1.6400    -0.2490 nb         1 8H1      -0.779000
      3 O1          -6.9670     2.6870     0.2620 os         1 8H1      -0.318100
      4 C2          -6.5040     1.4320     0.2020 ca         1 8H1       0.122100
      5 N2          -5.5040    -2.6070     0.0470 nb         1 8H1      -0.670000
      6 C3          -5.1830     1.0760     0.1170 ca         1 8H1      -0.163000
      7 O3           3.7080     0.3060     0.0430 os         1 8H1      -0.317100
      8 C4          -4.7930    -0.2790     0.0600 ca         1 8H1      -0.069000
      9 N4           1.0780     2.7180    -0.6200 nb         1 8H1      -0.647000
     10 C5          -3.4230    -0.6950    -0.0380 ca         1 8H1       0.076000
     11 N5           6.1180    -0.7760    -0.9880 n8         1 8H1      -0.982200
     12 C6          -2.3340     0.1920    -0.0810 ca         1 8H1      -0.211000
     13 C7          -1.0630    -0.3230    -0.1960 cp         1 8H1       0.477500
     14 C8          -1.8040    -2.5020    -0.1950 ca         1 8H1       0.660900
     15 C9          -3.1680    -2.0750    -0.0940 ca         1 8H1      -0.211000
     16 C10         -4.2650    -2.9730    -0.0410 ca         1 8H1       0.386900
     17 C11         -5.7850    -1.2720     0.0940 ca         1 8H1       0.284000
     18 C12         -7.1440    -0.9010     0.1790 ca         1 8H1      -0.170000
     19 C13         -7.5110     0.4190     0.2310 ca         1 8H1       0.138100
     20 C14         -9.8190    -0.0740     0.3290 c3         1 8H1       0.142900
     21 C15          0.1260     0.5540    -0.2670 cp         1 8H1      -0.165500
     22 C16          1.3970     0.0310    -0.0740 ca         1 8H1      -0.073000
     23 C17          2.5060     0.8680    -0.1500 ca         1 8H1       0.089100
     24 C18          2.2930     2.2190    -0.4220 ca         1 8H1       0.254900
     25 C19          0.0290     1.9200    -0.5490 ca         1 8H1       0.311900
     26 C20          4.8650     1.1120    -0.1080 c3         1 8H1       0.168600
     27 C21          6.1000     0.2430     0.0430 c3         1 8H1       0.164500
     28 C22          7.3350     1.1680     0.0640 c3         1 8H1      -0.074100
     29 C23          8.6160     0.3990     0.2090 ca         1 8H1      -0.088300
     30 C24          9.3700     0.0470    -0.9090 ca         1 8H1      -0.108500
     31 C25         10.5340    -0.7000    -0.7790 ca         1 8H1      -0.106000
     32 C26         10.9610    -1.1110     0.4770 ca         1 8H1      -0.107000
     33 C27         10.2160    -0.7690     1.5990 ca         1 8H1      -0.106000
     34 C28          9.0540    -0.0220     1.4630 ca         1 8H1      -0.108500
     35 H1          -6.6070     4.6680     0.3080 h1         1 8H1       0.043033
     36 H1A         -5.3480     3.7000     1.0970 h1         1 8H1       0.043033
     37 H1B         -5.4480     3.7610    -0.6780 h1         1 8H1       0.043033
     38 H3          -4.4240     1.8450     0.0920 ha         1 8H1       0.123000
     39 HN3         -0.5220    -4.0430    -0.4290 hn         1 8H1       0.488500
     40 HN3A        -2.1550    -4.5210    -0.4150 hn         1 8H1       0.488500
     41 HN5A         6.8920    -1.4100    -0.8300 hn         1 8H1       0.398000
     42 H6          -2.4880     1.2570    -0.0110 ha         1 8H1       0.126000
     43 H10         -4.0950    -4.0450    -0.0710 h4         1 8H1       0.008100
     44 H12         -7.8750    -1.6960     0.1990 ha         1 8H1       0.139000
     45 H14        -10.7430     0.4960     0.3850 h1         1 8H1       0.044367
     46 H14A        -9.8340    -0.6830    -0.5780 h1         1 8H1       0.044367
     47 H14B        -9.7550    -0.7320     1.1990 h1         1 8H1       0.044367
     48 H16          1.5280    -1.0230     0.1310 ha         1 8H1       0.156000
     49 H18          3.1130     2.9230    -0.4890 h4         1 8H1       0.019100
     50 H19         -0.9300     2.3850    -0.7450 h4         1 8H1       0.018100
     51 H20          4.8700     1.5900    -1.0960 h1         1 8H1       0.034200
     52 H20A         4.8750     1.9080     0.6450 h1         1 8H1       0.034200
     53 H21          6.0480    -0.2670     1.0120 h1         1 8H1       0.077700
     54 H22          7.3580     1.7540    -0.8600 hc         1 8H1       0.052700
     55 H22A         7.2340     1.8800     0.8880 hc         1 8H1       0.052700
     56 H24          9.0450     0.3670    -1.8920 ha         1 8H1       0.111000
     57 H25         11.1090    -0.9570    -1.6590 ha         1 8H1       0.114500
     58 H26         11.8690    -1.6910     0.5820 ha         1 8H1       0.115000
     59 H27         10.5440    -1.0800     2.5830 ha         1 8H1       0.114500
     60 H28          8.4810     0.2400     2.3460 ha         1 8H1       0.111000
     61 O2          -8.7660     0.8730     0.3070 os         1 8H1      -0.317100
     62 N3          -1.4760    -3.8100    -0.2080 nv         1 8H1      -1.070900
     63 HN5          6.2880    -0.3500    -1.8920 hn         1 8H1       0.398000
@<TRIPOS>BOND
     1     1     3 1   
     2     1    35 1   
     3     1    36 1   
     4     1    37 1   
     5     2    13 ar  
     6     2    14 ar  
     7     3     4 1   
     8     4     6 ar  
     9     4    19 ar  
    10     5    16 ar  
    11     5    17 ar  
    12     6     8 ar  
    13     6    38 1   
    14     7    23 1   
    15     7    26 1   
    16     8    10 ar  
    17     8    17 ar  
    18     9    24 ar  
    19     9    25 ar  
    20    10    12 ar  
    21    10    15 ar  
    22    11    27 1   
    23    11    41 1   
    24    11    63 1   
    25    12    13 ar  
    26    12    42 1   
    27    13    21 1   
    28    14    15 ar  
    29    14    62 1   
    30    15    16 ar  
    31    16    43 1   
    32    17    18 ar  
    33    18    19 ar  
    34    18    44 1   
    35    19    61 1   
    36    20    45 1   
    37    20    46 1   
    38    20    47 1   
    39    20    61 1   
    40    21    22 ar  
    41    21    25 ar  
    42    22    23 ar  
    43    22    48 1   
    44    23    24 ar  
    45    24    49 1   
    46    25    50 1   
    47    26    27 1   
    48    26    51 1   
    49    26    52 1   
    50    27    28 1   
    51    27    53 1   
    52    28    29 1   
    53    28    54 1   
    54    28    55 1   
    55    29    30 ar  
    56    29    34 ar  
    57    30    31 ar  
    58    30    56 1   
    59    31    32 ar  
    60    31    57 1   
    61    32    33 ar  
    62    32    58 1   
    63    33    34 ar  
    64    33    59 1   
    65    34    60 1   
    66    39    62 1   
    67    40    62 1   
@<TRIPOS>SUBSTRUCTURE
     1 8H1         1 TEMP              0 ****  ****    0 ROOT
