@<TRIPOS>MOLECULE
8H3
   97    99     1     0     0
SMALL
No Charge or Current Charge


@<TRIPOS>ATOM
      1 C1         -14.0820   -10.3850   -16.9410 c          1 8H3       0.606100
      2 C11         -9.9780   -18.4450   -18.8830 c3         1 8H3       0.051700
      3 C12        -10.0170   -17.0930   -18.0980 c          1 8H3       0.586100
      4 C13         -8.3260   -16.0050   -19.6450 c5         1 8H3       0.132000
      5 C14         -9.6360   -14.6000   -18.0500 c5         1 8H3       0.057700
      6 C15        -11.0880   -14.0470   -18.2000 c          1 8H3       0.596100
      7 C16         -7.8070   -14.5630   -19.7200 cx         1 8H3      -0.121700
      8 C17        -12.6540   -12.5460   -16.9000 c3         1 8H3       0.073700
      9 C18         -7.1290   -14.0000   -18.4780 cx         1 8H3      -0.071000
     10 C19        -13.1490   -13.0870   -15.5300 c3         1 8H3      -0.075400
     11 C2         -14.9190    -7.0690   -18.8990 c3         1 8H3      -0.077400
     12 C20        -13.1570   -14.6380   -15.3900 c5         1 8H3      -0.156700
     13 C21        -14.0940   -15.3940   -16.3730 c5         1 8H3      -0.089400
     14 C22        -14.2400   -16.7640   -15.6590 c5         1 8H3       0.099000
     15 C23         -6.6700   -14.8930   -17.3110 c3         1 8H3      -0.067600
     16 C24        -13.6410   -15.1400   -14.0230 c          1 8H3       0.564000
     17 C25         -6.1310   -12.8590   -18.6650 c3         1 8H3      -0.067600
     18 C27         -8.3730   -22.1210   -14.3230 c3         1 8H3      -0.105100
     19 C28         -7.7590   -19.6880   -14.0680 c3         1 8H3      -0.105100
     20 C29         -6.4510   -21.1850   -15.6600 c3         1 8H3      -0.105100
     21 C3         -15.9130    -9.4070   -18.3820 c3         1 8H3       0.103000
     22 C30        -11.2110   -18.6900   -19.8280 c3         1 8H3      -0.037000
     23 C31        -11.2420   -17.6360   -20.9670 c3         1 8H3      -0.089433
     24 C32        -12.5510   -18.6100   -19.0420 c3         1 8H3      -0.089433
     25 C34         -8.5960   -13.7130   -18.7610 cx         1 8H3      -0.140700
     26 C4         -15.9070    -7.8990   -18.0460 c3         1 8H3      -0.103400
     27 C5         -14.9640    -5.5630   -18.5760 c3         1 8H3      -0.088100
     28 C7          -7.8470   -20.8700   -15.0660 c3         1 8H3       0.155400
     29 C8         -12.6420   -10.9900   -16.9960 c3         1 8H3       0.072300
     30 N10         -9.8010   -19.5160   -17.8930 ns         1 8H3      -0.491900
     31 N13         -9.4650   -15.9360   -18.6960 n          1 8H3      -0.385800
     32 N16        -11.3270   -13.1110   -17.2100 ns         1 8H3      -0.515900
     33 N2         -14.6120   -10.0430   -18.1670 ns         1 8H3      -0.487900
     34 N23        -14.2680   -16.3330   -14.2630 ns         1 8H3      -0.514900
     35 N8          -8.8060   -20.5700   -16.1360 ns         1 8H3      -0.523900
     36 O26        -13.7110   -14.5510   -12.9560 o          1 8H3      -0.556000
     37 O29         -7.8520   -18.7070   -17.1000 o          1 8H3      -0.656100
     38 O33        -10.5960   -16.9920   -17.0180 o          1 8H3      -0.635100
     39 O38        -11.9120   -14.3390   -19.0580 o          1 8H3      -0.592100
     40 O5         -14.6870   -10.1840   -15.8950 o          1 8H3      -0.602100
     41 O9         -11.9190   -10.5880   -18.1910 oh         1 8H3      -0.661000
     42 H1          -9.0760   -18.4470   -19.5060 h1         1 8H3       0.090700
     43 H2          -8.6640   -16.3540   -20.6290 h1         1 8H3       0.066200
     44 H3          -7.5550   -16.7060   -19.2980 h1         1 8H3       0.066200
     45 H4          -9.4310   -14.6720   -16.9740 h1         1 8H3       0.083700
     46 H5          -7.5300   -14.1460   -20.6860 hc         1 8H3       0.099700
     47 H6         -13.3650   -12.9010   -17.6590 h1         1 8H3       0.090700
     48 H7         -12.5190   -12.6590   -14.7400 hc         1 8H3       0.072200
     49 H8         -14.1630   -12.7150   -15.3410 hc         1 8H3       0.072200
     50 H9         -15.1470    -7.2130   -19.9630 hc         1 8H3       0.038200
     51 H10        -13.8970    -7.4330   -18.7390 hc         1 8H3       0.038200
     52 H11        -12.1420   -15.0320   -15.5200 hc         1 8H3       0.086700
     53 H12        -13.6830   -15.4920   -17.3830 hc         1 8H3       0.062700
     54 H13        -15.0680   -14.8960   -16.4590 hc         1 8H3       0.062700
     55 H14        -15.1540   -17.2930   -15.9620 h1         1 8H3       0.044200
     56 H15         -6.6080   -14.3130   -16.3830 hc         1 8H3       0.043700
     57 H16         -7.3310   -15.7420   -17.1130 hc         1 8H3       0.043700
     58 H17         -5.6730   -15.3050   -17.5100 hc         1 8H3       0.043700
     59 H18         -6.0620   -12.2440   -17.7600 hc         1 8H3       0.043700
     60 H19         -5.1290   -13.2440   -18.8900 hc         1 8H3       0.043700
     61 H20         -6.4220   -12.1980   -19.4910 hc         1 8H3       0.043700
     62 H21        -11.1680   -20.8970   -19.7400 hc         1 8H3       0.040033
     63 H22        -11.9080   -20.2540   -21.2100 hc         1 8H3       0.040033
     64 H23        -10.1470   -20.2050   -21.0160 hc         1 8H3       0.040033
     65 H24         -9.3650   -21.9340   -13.8940 hc         1 8H3       0.044700
     66 H25         -8.4530   -22.9770   -15.0040 hc         1 8H3       0.044700
     67 H26         -7.6990   -22.4030   -13.5050 hc         1 8H3       0.044700
     68 H27         -8.7520   -19.4320   -13.6800 hc         1 8H3       0.044700
     69 H28         -7.1190   -19.9470   -13.2160 hc         1 8H3       0.044700
     70 H29         -7.3370   -18.7930   -14.5380 hc         1 8H3       0.044700
     71 H30         -5.7570   -21.5040   -14.8730 hc         1 8H3       0.044700
     72 H31         -6.5150   -21.9900   -16.4020 hc         1 8H3       0.044700
     73 H32         -6.0130   -20.3070   -16.1490 hc         1 8H3       0.044700
     74 H33        -16.6640    -9.9160   -17.7630 h1         1 8H3       0.053200
     75 H34        -16.1990    -9.5440   -19.4340 h1         1 8H3       0.053200
     76 H35        -11.3540   -16.6200   -20.5730 hc         1 8H3       0.040033
     77 H36        -10.3230   -17.6750   -21.5640 hc         1 8H3       0.040033
     78 H37        -12.0850   -17.8180   -21.6450 hc         1 8H3       0.040033
     79 H38        -12.7170   -17.6050   -18.6380 hc         1 8H3       0.040033
     80 H39        -13.4000   -18.8440   -19.6960 hc         1 8H3       0.040033
     81 H40        -12.5690   -19.3200   -18.2070 hc         1 8H3       0.040033
     82 H41         -8.8660   -12.7020   -19.0620 hc         1 8H3       0.095700
     83 H42        -15.6710    -7.7660   -16.9830 hc         1 8H3       0.052200
     84 H43        -16.9220    -7.5090   -18.1930 hc         1 8H3       0.052200
     85 H44        -14.2490    -5.0170   -19.2030 hc         1 8H3       0.031700
     86 H45        -15.9650    -5.1550   -18.7630 hc         1 8H3       0.031700
     87 H46        -14.7060    -5.3840   -17.5260 hc         1 8H3       0.031700
     88 H47        -12.1150   -10.6020   -16.1140 h1         1 8H3       0.064700
     89 H48        -10.5650   -20.1500   -17.7270 hn         1 8H3       0.304500
     90 H49        -10.5720   -12.9420   -16.5540 hn         1 8H3       0.317500
     91 H50        -13.9970   -10.1940   -18.9600 hn         1 8H3       0.331500
     92 H51         -9.6060   -21.1810   -16.2200 hn         1 8H3       0.308500
     93 H52        -11.1840   -11.2320   -18.2970 ho         1 8H3       0.458000
     94 H53        -13.3780   -17.4160   -15.8590 h1         1 8H3       0.044200
     95 H54        -14.7440   -16.8010   -13.5010 hn         1 8H3       0.324500
     96 C26        -11.1010   -20.0960   -20.4850 c3         1 8H3      -0.089433
     97 C9          -8.7400   -19.5390   -17.0390 c          1 8H3       0.646100
@<TRIPOS>BOND
     1     1    29 1   
     2     1    33 1   
     3     1    40 2   
     4     2     3 1   
     5     2    22 1   
     6     2    30 1   
     7     2    42 1   
     8     3    31 1   
     9     3    38 2   
    10     4     7 1   
    11     4    31 1   
    12     4    43 1   
    13     4    44 1   
    14     5     6 1   
    15     5    25 1   
    16     5    31 1   
    17     5    45 1   
    18     6    32 1   
    19     6    39 2   
    20     7     9 1   
    21     7    25 1   
    22     7    46 1   
    23     8    10 1   
    24     8    29 1   
    25     8    32 1   
    26     8    47 1   
    27     9    15 1   
    28     9    17 1   
    29     9    25 1   
    30    10    12 1   
    31    10    48 1   
    32    10    49 1   
    33    11    26 1   
    34    11    27 1   
    35    11    50 1   
    36    11    51 1   
    37    12    13 1   
    38    12    16 1   
    39    12    52 1   
    40    13    14 1   
    41    13    53 1   
    42    13    54 1   
    43    14    34 1   
    44    14    55 1   
    45    14    94 1   
    46    15    56 1   
    47    15    57 1   
    48    15    58 1   
    49    16    34 1   
    50    16    36 2   
    51    17    59 1   
    52    17    60 1   
    53    17    61 1   
    54    18    28 1   
    55    18    65 1   
    56    18    66 1   
    57    18    67 1   
    58    19    28 1   
    59    19    68 1   
    60    19    69 1   
    61    19    70 1   
    62    20    28 1   
    63    20    71 1   
    64    20    72 1   
    65    20    73 1   
    66    21    26 1   
    67    21    33 1   
    68    21    74 1   
    69    21    75 1   
    70    22    23 1   
    71    22    24 1   
    72    22    96 1   
    73    23    76 1   
    74    23    77 1   
    75    23    78 1   
    76    24    79 1   
    77    24    80 1   
    78    24    81 1   
    79    25    82 1   
    80    26    83 1   
    81    26    84 1   
    82    27    85 1   
    83    27    86 1   
    84    27    87 1   
    85    28    35 1   
    86    29    41 1   
    87    29    88 1   
    88    30    89 1   
    89    30    97 1   
    90    32    90 1   
    91    33    91 1   
    92    34    95 1   
    93    35    92 1   
    94    35    97 1   
    95    37    97 2   
    96    41    93 1   
    97    62    96 1   
    98    63    96 1   
    99    64    96 1   
@<TRIPOS>SUBSTRUCTURE
     1 8H3         1 TEMP              0 ****  ****    0 ROOT
