@<TRIPOS>MOLECULE
8H3
   97    99     1     0     0
SMALL
bcc


@<TRIPOS>ATOM
      1 C1         -13.9960   -10.4270   -16.7150 c          1 8H3       0.673100
      2 C11        -10.1800   -18.3040   -18.6860 c3         1 8H3       0.051700
      3 C12        -10.3440   -16.9830   -17.9260 c          1 8H3       0.653100
      4 C13         -8.7640   -15.8060   -19.4930 c5         1 8H3       0.132000
      5 C14         -9.7580   -14.6720   -17.5800 c5         1 8H3       0.057700
      6 C15        -11.1350   -14.0490   -17.7920 c          1 8H3       0.663100
      7 C16         -8.0890   -14.4670   -19.3460 cx         1 8H3      -0.121700
      8 C17        -12.8880   -12.6990   -16.6910 c3         1 8H3       0.073700
      9 C18         -7.2610   -14.1910   -18.1230 cx         1 8H3      -0.071000
     10 C19        -13.7330   -13.2530   -15.5450 c3         1 8H3      -0.075400
     11 C2         -14.2880    -7.3680   -19.1840 c3         1 8H3      -0.077400
     12 C20        -13.8670   -14.7670   -15.5820 c5         1 8H3      -0.156700
     13 C21        -14.5600   -15.3520   -16.8120 c5         1 8H3      -0.089400
     14 C22        -15.1730   -16.6530   -16.2930 c5         1 8H3       0.099000
     15 C23         -6.7830   -15.2910   -17.2060 c3         1 8H3      -0.067600
     16 C24        -14.6950   -15.3110   -14.4270 c          1 8H3       0.706500
     17 C25         -6.2560   -13.0700   -18.2630 c3         1 8H3      -0.067600
     18 C27         -7.5270   -21.3840   -14.2810 c3         1 8H3      -0.105100
     19 C28         -6.5320   -19.2000   -14.9310 c3         1 8H3      -0.105100
     20 C29         -6.1670   -21.2400   -16.3600 c3         1 8H3      -0.105100
     21 C3         -15.5570    -9.4020   -18.3070 c3         1 8H3       0.103000
     22 C30        -11.4200   -18.6930   -19.5330 c3         1 8H3      -0.037000
     23 C31        -11.7480   -17.5480   -20.4920 c3         1 8H3      -0.089433
     24 C32        -12.6580   -19.0020   -18.6890 c3         1 8H3      -0.089433
     25 C34         -8.7010   -13.7620   -18.1710 cx         1 8H3      -0.140700
     26 C4         -15.3570    -7.8920   -18.2330 c3         1 8H3      -0.103400
     27 C5         -14.1380    -5.8550   -19.1130 c3         1 8H3      -0.088100
     28 C7          -7.1570   -20.4920   -15.4650 c3         1 8H3       0.155400
     29 C8         -12.6710   -11.1720   -16.5820 c3         1 8H3       0.049100
     30 N10         -9.8390   -19.3360   -17.7340 ns         1 8H3      -0.558900
     31 N13         -9.6350   -15.9120   -18.3240 n          1 8H3      -0.452800
     32 N16        -11.5940   -13.3470   -16.7370 ns         1 8H3      -0.582900
     33 N2         -14.3690   -10.1610   -17.9720 ns         1 8H3      -0.554900
     34 N23        -15.4160   -16.3420   -14.9000 ns         1 8H3      -0.581900
     35 N8          -8.4110   -20.2200   -16.1730 ns         1 8H3      -0.590900
     36 O26        -14.6910   -14.9000   -13.2790 o          1 8H3      -0.631500
     37 O29         -7.6140   -18.8760   -17.8300 o          1 8H3      -0.656100
     38 O33        -11.0730   -16.9240   -16.9410 o          1 8H3      -0.635100
     39 O38        -11.7190   -14.1460   -18.8570 o          1 8H3      -0.592100
     40 O5         -14.6630   -10.1480   -15.7280 o          1 8H3      -0.602100
     41 O9         -11.8050   -10.7050   -17.5820 oh         1 8H3      -0.598800
     42 H1          -9.3500   -18.2280   -19.3860 h1         1 8H3       0.090700
     43 H2          -9.3400   -15.8260   -20.4200 h1         1 8H3       0.066200
     44 H3          -8.0520   -16.6320   -19.5220 h1         1 8H3       0.066200
     45 H4          -9.5890   -14.8570   -16.5140 h1         1 8H3       0.083700
     46 H5          -7.8590   -13.9330   -20.2600 hc         1 8H3       0.099700
     47 H6         -13.3780   -12.9090   -17.6440 h1         1 8H3       0.090700
     48 H7         -13.2950   -12.9500   -14.5900 hc         1 8H3       0.072200
     49 H8         -14.7270   -12.8050   -15.5910 hc         1 8H3       0.072200
     50 H9         -14.5370    -7.6650   -20.2070 hc         1 8H3       0.038200
     51 H10        -13.3270    -7.8380   -18.9530 hc         1 8H3       0.038200
     52 H11        -12.8760   -15.2260   -15.4790 hc         1 8H3       0.086700
     53 H12        -13.8870   -15.5190   -17.6500 hc         1 8H3       0.062700
     54 H13        -15.3540   -14.6790   -17.1480 hc         1 8H3       0.062700
     55 H14        -16.0980   -16.9180   -16.8050 h1         1 8H3       0.044200
     56 H15         -6.5980   -14.8940   -16.2070 hc         1 8H3       0.043700
     57 H16         -7.4790   -16.1210   -17.1070 hc         1 8H3       0.043700
     58 H17         -5.8410   -15.7030   -17.5730 hc         1 8H3       0.043700
     59 H18         -6.0360   -12.6220   -17.2930 hc         1 8H3       0.043700
     60 H19         -5.3170   -13.4440   -18.6770 hc         1 8H3       0.043700
     61 H20         -6.6150   -12.2780   -18.9210 hc         1 8H3       0.043700
     62 H21        -10.8260   -20.7880   -19.7210 hc         1 8H3       0.040033
     63 H22        -11.8960   -20.2120   -20.9970 hc         1 8H3       0.040033
     64 H23        -10.1960   -19.7450   -21.0000 hc         1 8H3       0.040033
     65 H24         -8.2310   -20.8840   -13.6120 hc         1 8H3       0.044700
     66 H25         -7.9800   -22.3200   -14.6150 hc         1 8H3       0.044700
     67 H26         -6.6360   -21.6320   -13.7050 hc         1 8H3       0.044700
     68 H27         -7.2370   -18.6690   -14.2890 hc         1 8H3       0.044700
     69 H28         -5.6480   -19.4350   -14.3360 hc         1 8H3       0.044700
     70 H29         -6.2280   -18.5320   -15.7340 hc         1 8H3       0.044700
     71 H30         -5.2690   -21.4930   -15.7940 hc         1 8H3       0.044700
     72 H31         -6.6060   -22.1700   -16.7240 hc         1 8H3       0.044700
     73 H32         -5.8650   -20.6430   -17.2180 hc         1 8H3       0.044700
     74 H33        -16.3680    -9.7060   -17.6440 h1         1 8H3       0.053200
     75 H34        -15.8490    -9.6880   -19.3180 h1         1 8H3       0.053200
     76 H35        -12.0390   -16.6360   -19.9680 hc         1 8H3       0.040033
     77 H36        -10.9020   -17.3120   -21.1410 hc         1 8H3       0.040033
     78 H37        -12.5840   -17.8290   -21.1360 hc         1 8H3       0.040033
     79 H38        -13.0050   -18.1340   -18.1300 hc         1 8H3       0.040033
     80 H39        -13.4720   -19.3170   -19.3440 hc         1 8H3       0.040033
     81 H40        -12.4910   -19.8170   -17.9830 hc         1 8H3       0.040033
     82 H41         -8.9180   -12.6990   -18.1960 hc         1 8H3       0.095700
     83 H42        -15.1120    -7.6070   -17.2060 hc         1 8H3       0.052200
     84 H43        -16.3150    -7.4160   -18.4650 hc         1 8H3       0.052200
     85 H44        -13.3740    -5.4970   -19.8040 hc         1 8H3       0.031700
     86 H45        -15.0740    -5.3530   -19.3650 hc         1 8H3       0.031700
     87 H46        -13.8520    -5.5330   -18.1100 hc         1 8H3       0.031700
     88 H47        -12.2810   -10.9510   -15.5780 h1         1 8H3       0.064700
     89 H48        -10.5750   -19.5920   -17.0940 hn         1 8H3       0.304500
     90 H49        -11.0720   -13.3970   -15.8730 hn         1 8H3       0.317500
     91 H50        -13.7160   -10.3680   -18.7110 hn         1 8H3       0.331500
     92 H51         -9.2360   -20.6670   -15.8050 hn         1 8H3       0.308500
     93 H52        -10.9920   -11.2220   -17.5470 ho         1 8H3       0.419000
     94 H53        -14.4800   -17.4940   -16.3960 h1         1 8H3       0.044200
     95 H54        -15.9510   -16.9430   -14.2930 hn         1 8H3       0.324500
     96 C26        -11.0580   -19.9320   -20.3550 c3         1 8H3      -0.089433
     97 C9          -8.5500   -19.4380   -17.2680 c          1 8H3       0.780100
@<TRIPOS>BOND
     1     1    29 1   
     2     1    33 1   
     3     1    40 2   
     4     2     3 1   
     5     2    22 1   
     6     2    30 1   
     7     2    42 1   
     8     3    31 1   
     9     3    38 2   
    10     4     7 1   
    11     4    31 1   
    12     4    43 1   
    13     4    44 1   
    14     5     6 1   
    15     5    25 1   
    16     5    31 1   
    17     5    45 1   
    18     6    32 1   
    19     6    39 2   
    20     7     9 1   
    21     7    25 1   
    22     7    46 1   
    23     8    10 1   
    24     8    29 1   
    25     8    32 1   
    26     8    47 1   
    27     9    15 1   
    28     9    17 1   
    29     9    25 1   
    30    10    12 1   
    31    10    48 1   
    32    10    49 1   
    33    11    26 1   
    34    11    27 1   
    35    11    50 1   
    36    11    51 1   
    37    12    13 1   
    38    12    16 1   
    39    12    52 1   
    40    13    14 1   
    41    13    53 1   
    42    13    54 1   
    43    14    34 1   
    44    14    55 1   
    45    14    94 1   
    46    15    56 1   
    47    15    57 1   
    48    15    58 1   
    49    16    34 1   
    50    16    36 2   
    51    17    59 1   
    52    17    60 1   
    53    17    61 1   
    54    18    28 1   
    55    18    65 1   
    56    18    66 1   
    57    18    67 1   
    58    19    28 1   
    59    19    68 1   
    60    19    69 1   
    61    19    70 1   
    62    20    28 1   
    63    20    71 1   
    64    20    72 1   
    65    20    73 1   
    66    21    26 1   
    67    21    33 1   
    68    21    74 1   
    69    21    75 1   
    70    22    23 1   
    71    22    24 1   
    72    22    96 1   
    73    23    76 1   
    74    23    77 1   
    75    23    78 1   
    76    24    79 1   
    77    24    80 1   
    78    24    81 1   
    79    25    82 1   
    80    26    83 1   
    81    26    84 1   
    82    27    85 1   
    83    27    86 1   
    84    27    87 1   
    85    28    35 1   
    86    29    41 1   
    87    29    88 1   
    88    30    89 1   
    89    30    97 1   
    90    32    90 1   
    91    33    91 1   
    92    34    95 1   
    93    35    92 1   
    94    35    97 1   
    95    37    97 2   
    96    41    93 1   
    97    62    96 1   
    98    63    96 1   
    99    64    96 1   
@<TRIPOS>SUBSTRUCTURE
     1 8H3         1 TEMP              0 ****  ****    0 ROOT
