@<TRIPOS>MOLECULE
8H4
   17    18     1     0     0
SMALL
No Charge or Current Charge


@<TRIPOS>ATOM
      1 N1           3.1920     0.6230     0.0380 nv         1 8H4      -1.060000
      2 N3          -2.1280    -0.7980    -0.0160 na         1 8H4      -0.061400
      3 C4          -0.4780     0.6590     0.0090 ca         1 8H4      -0.190900
      4 C5           0.8380     1.1450     0.0240 ca         1 8H4      -0.113000
      5 C6           1.8870     0.1990     0.0250 ca         1 8H4       0.243000
      6 C7          -1.7570     1.3260     0.0040 cc         1 8H4       0.339800
      7 C1           1.5930    -1.1880     0.0110 ca         1 8H4      -0.120000
      8 C2           0.2530    -1.6410    -0.0030 ca         1 8H4      -0.095000
      9 C3          -0.7550    -0.6700    -0.0040 ca         1 8H4      -0.075200
     10 N2          -2.7740     0.4470    -0.0120 nd         1 8H4      -0.514100
     11 H4           3.4130     1.6130    -0.0580 hn         1 8H4       0.437000
     12 H5           3.9530    -0.0470    -0.0670 hn         1 8H4       0.437000
     13 H3           1.0400     2.2130     0.0350 ha         1 8H4       0.118000
     14 H6          -2.0050     2.3790     0.0110 h4         1 8H4       0.047800
     15 H1           2.4010    -1.9140     0.0130 ha         1 8H4       0.113000
     16 H2           0.0180    -2.7040    -0.0140 ha         1 8H4       0.119000
     17 H7          -2.6530    -1.6730    -0.0280 hn         1 8H4       0.374000
@<TRIPOS>BOND
     1     1     5 1   
     2     1    11 1   
     3     1    12 1   
     4     2     9 1   
     5     2    10 1   
     6     2    17 1   
     7     3     4 ar  
     8     3     6 1   
     9     3     9 ar  
    10     4     5 ar  
    11     4    13 1   
    12     5     7 ar  
    13     6    10 2   
    14     6    14 1   
    15     7     8 ar  
    16     7    15 1   
    17     8     9 ar  
    18     8    16 1   
@<TRIPOS>SUBSTRUCTURE
     1 8H4         1 TEMP              0 ****  ****    0 ROOT
