@<TRIPOS>MOLECULE
8H4
   17    18     1     0     0
SMALL
abcg2


@<TRIPOS>ATOM
      1 N1           3.2050     0.6040     0.1720 nv         1 8H4      -1.060000
      2 N3          -2.1090    -0.7910    -0.0370 na         1 8H4      -0.061400
      3 C4          -0.4770     0.6940     0.0210 ca         1 8H4      -0.190900
      4 C5           0.8490     1.1510     0.0550 ca         1 8H4      -0.113000
      5 C6           1.8730     0.2220     0.0720 ca         1 8H4       0.243000
      6 C7          -1.7610     1.3020    -0.0020 cc         1 8H4       0.339800
      7 C1           1.5610    -1.1650     0.0460 ca         1 8H4      -0.120000
      8 C2           0.2700    -1.6320     0.0060 ca         1 8H4      -0.095000
      9 C3          -0.7560    -0.6810    -0.0040 ca         1 8H4      -0.075200
     10 N2          -2.7100     0.3960    -0.0370 nd         1 8H4      -0.514100
     11 H4           3.3950     1.5460    -0.1330 hn         1 8H4       0.437000
     12 H5           3.8580    -0.0400    -0.2450 hn         1 8H4       0.437000
     13 H3           1.0650     2.2130     0.0690 ha         1 8H4       0.118000
     14 H6          -2.0070     2.3530     0.0060 h4         1 8H4       0.047800
     15 H1           2.3760    -1.8790     0.0600 ha         1 8H4       0.113000
     16 H2           0.0660    -2.6940    -0.0150 ha         1 8H4       0.119000
     17 H7          -2.6620    -1.6310    -0.0650 hn         1 8H4       0.374000
@<TRIPOS>BOND
     1     1     5 1   
     2     1    11 1   
     3     1    12 1   
     4     2     9 1   
     5     2    10 1   
     6     2    17 1   
     7     3     4 ar  
     8     3     6 1   
     9     3     9 ar  
    10     4     5 ar  
    11     4    13 1   
    12     5     7 ar  
    13     6    10 2   
    14     6    14 1   
    15     7     8 ar  
    16     7    15 1   
    17     8     9 ar  
    18     8    16 1   
@<TRIPOS>SUBSTRUCTURE
     1 8H4         1 TEMP              0 ****  ****    0 ROOT
