@<TRIPOS>MOLECULE
8H6
   56    55     1     0     0
SMALL
No Charge or Current Charge


@<TRIPOS>ATOM
      1 O1           8.9060    -1.0270     0.5290 oh         1 8H6      -0.664000
      2 O17          4.4760    -0.8700    -0.7440 o          1 8H6      -0.614100
      3 C5           4.7290     0.2840    -0.4200 c          1 8H6       0.562100
      4 C4           5.9940     1.0430    -0.9460 c3         1 8H6       0.099300
      5 C3           7.3000     0.7620    -0.1110 c3         1 8H6      -0.064000
      6 C15          7.0470     1.1370     1.3810 c3         1 8H6      -0.081600
      7 C2           7.7090    -0.7460    -0.2150 c3         1 8H6       0.165600
      8 C14          8.4510     1.6690    -0.6460 c3         1 8H6      -0.081600
      9 O16          6.2140     0.7570    -2.3510 oh         1 8H6      -0.648000
     10 C7           2.6120     0.5210     0.9290 c3         1 8H6       0.114000
     11 C8           1.4750     0.5590    -0.1080 c3         1 8H6      -0.186400
     12 C9           0.1700     0.0640     0.5080 c          1 8H6       0.602100
     13 O18         -0.0340    -1.1150     0.7540 o          1 8H6      -0.594100
     14 N10         -0.7750     1.0380     0.7390 ns         1 8H6      -0.510900
     15 C11         -2.1090     0.7920     1.3010 c3         1 8H6       0.117000
     16 C12         -3.0540     0.0980     0.3010 c3         1 8H6       0.039600
     17 S13         -4.7310    -0.1440     1.0500 ss         1 8H6      -0.373600
     18 C19         -5.5880    -0.9610    -0.3310 c          1 8H6       0.609700
     19 O24         -5.0480    -1.1920    -1.4030 o          1 8H6      -0.488100
     20 C20         -7.0510    -1.2780    -0.0450 c3         1 8H6      -0.255700
     21 C26         -7.4060    -2.7640    -0.3180 c3         1 8H6      -0.074100
     22 C21         -7.9050    -0.3010    -0.8510 c          1 8H6       0.576100
     23 O25         -8.0240    -0.3980    -2.0650 o          1 8H6      -0.488100
     24 C22         -8.5930     0.8210    -0.0510 c3         1 8H6      -0.181400
     25 C23         -9.3460     1.8820    -0.8860 c3         1 8H6      -0.079100
     26 H1           9.1010    -1.9820     0.4070 ho         1 8H6       0.445000
     27 H2           5.7680     2.1130    -0.8420 h1         1 8H6       0.069700
     28 H3           6.6770     2.1650     1.4710 hc         1 8H6       0.040867
     29 H4           6.3110     0.4670     1.8430 hc         1 8H6       0.040867
     30 H5           7.9690     1.0670     1.9710 hc         1 8H6       0.040867
     31 H6           7.8630    -1.0100    -1.2700 h1         1 8H6       0.028200
     32 H7           6.8910    -1.3730     0.1630 h1         1 8H6       0.028200
     33 H8           9.3500     1.5820    -0.0240 hc         1 8H6       0.040867
     34 H9           8.7300     1.3960    -1.6710 hc         1 8H6       0.040867
     35 H10          8.1500     2.7240    -0.6470 hc         1 8H6       0.040867
     36 H11          5.8580    -0.1470    -2.5140 ho         1 8H6       0.469000
     37 H12          4.1400     1.9780     0.5780 hn         1 8H6       0.318500
     38 H13          2.7580    -0.5090     1.2850 h1         1 8H6       0.071200
     39 H14          2.3410     1.1390     1.7960 h1         1 8H6       0.071200
     40 H15          1.3610     1.5890    -0.4660 hc         1 8H6       0.068200
     41 H16          1.7400    -0.0990    -0.9430 hc         1 8H6       0.068200
     42 H17         -0.5190     1.9890     0.4990 hn         1 8H6       0.314500
     43 H18         -2.0090     0.1710     2.2010 h1         1 8H6       0.065700
     44 H19         -2.5440     1.7540     1.6020 h1         1 8H6       0.065700
     45 H20         -3.1470     0.7130    -0.6040 h1         1 8H6       0.084700
     46 H21         -2.6430    -0.8790     0.0170 h1         1 8H6       0.084700
     47 H22         -7.2210    -1.0640     1.0160 hc         1 8H6       0.083700
     48 H23         -6.7890    -3.4290     0.3000 hc         1 8H6       0.053033
     49 H24         -8.4590    -2.9600    -0.0790 hc         1 8H6       0.053033
     50 H25         -7.2410    -3.0250    -1.3700 hc         1 8H6       0.053033
     51 H26         -9.2520     0.3460     0.6850 hc         1 8H6       0.063200
     52 H27         -7.8440     1.2780     0.6060 hc         1 8H6       0.063200
     53 H28         -9.7970     2.6360    -0.2290 hc         1 8H6       0.043033
     54 H29         -8.6610     2.3940    -1.5730 hc         1 8H6       0.043033
     55 H30        -10.1470     1.4180    -1.4750 hc         1 8H6       0.043033
     56 N6           3.8720     1.0220     0.3730 ns         1 8H6      -0.495900
@<TRIPOS>BOND
     1     1     7 1   
     2     1    26 1   
     3     2     3 2   
     4     3     4 1   
     5     3    56 1   
     6     4     5 1   
     7     4     9 1   
     8     4    27 1   
     9     5     6 1   
    10     5     7 1   
    11     5     8 1   
    12     6    28 1   
    13     6    29 1   
    14     6    30 1   
    15     7    31 1   
    16     7    32 1   
    17     8    33 1   
    18     8    34 1   
    19     8    35 1   
    20     9    36 1   
    21    10    11 1   
    22    10    38 1   
    23    10    39 1   
    24    10    56 1   
    25    11    12 1   
    26    11    40 1   
    27    11    41 1   
    28    12    13 2   
    29    12    14 1   
    30    14    15 1   
    31    14    42 1   
    32    15    16 1   
    33    15    43 1   
    34    15    44 1   
    35    16    17 1   
    36    16    45 1   
    37    16    46 1   
    38    17    18 1   
    39    18    19 2   
    40    18    20 1   
    41    20    21 1   
    42    20    22 1   
    43    20    47 1   
    44    21    48 1   
    45    21    49 1   
    46    21    50 1   
    47    22    23 2   
    48    22    24 1   
    49    24    25 1   
    50    24    51 1   
    51    24    52 1   
    52    25    53 1   
    53    25    54 1   
    54    25    55 1   
    55    37    56 1   
@<TRIPOS>SUBSTRUCTURE
     1 8H6         1 TEMP              0 ****  ****    0 ROOT
