@<TRIPOS>MOLECULE
8H6
   56    55     1     0     0
SMALL
abcg2


@<TRIPOS>ATOM
      1 O1           8.1730    -1.4900    -0.1650 oh         1 8H6      -0.664000
      2 O17          3.8760    -0.2020    -1.1960 o          1 8H6      -0.614100
      3 C5           4.4040     0.6430    -0.4800 c          1 8H6       0.562100
      4 C4           5.7290     1.2760    -0.9100 c3         1 8H6       0.099300
      5 C3           6.9770     0.5860    -0.2870 c3         1 8H6      -0.064000
      6 C15          6.9650     0.7460     1.2360 c3         1 8H6      -0.081600
      7 C2           6.9920    -0.8980    -0.6590 c3         1 8H6       0.165600
      8 C14          8.2180     1.2900    -0.8450 c3         1 8H6      -0.081600
      9 O16          5.7690     1.2880    -2.3110 oh         1 8H6      -0.648000
     10 C7           2.6570     0.5140     1.2290 c3         1 8H6       0.114000
     11 C8           1.4150     1.1730     0.6390 c3         1 8H6      -0.186400
     12 C9           0.1400     0.5860     1.2020 c          1 8H6       0.602100
     13 O18          0.0580    -0.5840     1.5490 o          1 8H6      -0.594100
     14 N10         -0.8980     1.4380     1.2740 ns         1 8H6      -0.510900
     15 C11         -2.2170     1.0420     1.7010 c3         1 8H6       0.117000
     16 C12         -2.9900     0.3650     0.5710 c3         1 8H6       0.039600
     17 S13         -4.6380    -0.0790     1.1860 ss         1 8H6      -0.373600
     18 C19         -5.3380    -0.8760    -0.2130 c          1 8H6       0.609700
     19 O24         -4.7640    -1.0200    -1.2620 o          1 8H6      -0.488100
     20 C20         -6.7530    -1.3800     0.0320 c3         1 8H6      -0.255700
     21 C26         -6.7890    -2.8990    -0.0950 c3         1 8H6      -0.074100
     22 C21         -7.6600    -0.6750    -0.9770 c          1 8H6       0.576100
     23 O25         -8.0140    -1.2220    -1.9910 o          1 8H6      -0.488100
     24 C22         -8.0650     0.7260    -0.6120 c3         1 8H6      -0.181400
     25 C23         -8.8070     1.4750    -1.7020 c3         1 8H6      -0.079100
     26 H1           8.1630    -2.4180    -0.4120 ho         1 8H6       0.445000
     27 H2           5.7510     2.3200    -0.5750 h1         1 8H6       0.069700
     28 H3           6.8450     1.7940     1.5240 hc         1 8H6       0.040867
     29 H4           6.1670     0.1730     1.7100 hc         1 8H6       0.040867
     30 H5           7.9090     0.4060     1.6600 hc         1 8H6       0.040867
     31 H6           6.9300    -1.0030    -1.7500 h1         1 8H6       0.028200
     32 H7           6.1080    -1.3930    -0.2350 h1         1 8H6       0.028200
     33 H8           9.1240     0.9000    -0.3840 hc         1 8H6       0.040867
     34 H9           8.3090     1.1650    -1.9230 hc         1 8H6       0.040867
     35 H10          8.1790     2.3620    -0.6350 hc         1 8H6       0.040867
     36 H11          5.2690     0.5190    -2.6160 ho         1 8H6       0.469000
     37 H12          4.3300     1.8040     1.1770 hn         1 8H6       0.318500
     38 H13          2.6320    -0.5610     1.0590 h1         1 8H6       0.071200
     39 H14          2.6920     0.6690     2.3070 h1         1 8H6       0.071200
     40 H15          1.4500     2.2530     0.8000 hc         1 8H6       0.068200
     41 H16          1.3990     1.0200    -0.4440 hc         1 8H6       0.068200
     42 H17         -0.7730     2.3840     0.9520 hn         1 8H6       0.314500
     43 H18         -2.1390     0.3760     2.5610 h1         1 8H6       0.065700
     44 H19         -2.7400     1.9390     2.0310 h1         1 8H6       0.065700
     45 H20         -3.0940     1.0400    -0.2780 h1         1 8H6       0.084700
     46 H21         -2.4800    -0.5410     0.2450 h1         1 8H6       0.084700
     47 H22         -7.0690    -1.0850     1.0380 hc         1 8H6       0.083700
     48 H23         -6.1200    -3.3550     0.6340 hc         1 8H6       0.053033
     49 H24         -7.7950    -3.2670     0.1010 hc         1 8H6       0.053033
     50 H25         -6.4910    -3.2270    -1.0880 hc         1 8H6       0.053033
     51 H26         -8.6770     0.6500     0.2940 hc         1 8H6       0.063200
     52 H27         -7.1720     1.2740    -0.2930 hc         1 8H6       0.063200
     53 H28         -9.0710     2.4740    -1.3570 hc         1 8H6       0.043033
     54 H29         -8.1990     1.5830    -2.6000 hc         1 8H6       0.043033
     55 H30         -9.7290     0.9670    -1.9820 hc         1 8H6       0.043033
     56 N6           3.8800     1.0540     0.6760 ns         1 8H6      -0.495900
@<TRIPOS>BOND
     1     1     7 1   
     2     1    26 1   
     3     2     3 2   
     4     3     4 1   
     5     3    56 1   
     6     4     5 1   
     7     4     9 1   
     8     4    27 1   
     9     5     6 1   
    10     5     7 1   
    11     5     8 1   
    12     6    28 1   
    13     6    29 1   
    14     6    30 1   
    15     7    31 1   
    16     7    32 1   
    17     8    33 1   
    18     8    34 1   
    19     8    35 1   
    20     9    36 1   
    21    10    11 1   
    22    10    38 1   
    23    10    39 1   
    24    10    56 1   
    25    11    12 1   
    26    11    40 1   
    27    11    41 1   
    28    12    13 2   
    29    12    14 1   
    30    14    15 1   
    31    14    42 1   
    32    15    16 1   
    33    15    43 1   
    34    15    44 1   
    35    16    17 1   
    36    16    45 1   
    37    16    46 1   
    38    17    18 1   
    39    18    19 2   
    40    18    20 1   
    41    20    21 1   
    42    20    22 1   
    43    20    47 1   
    44    21    48 1   
    45    21    49 1   
    46    21    50 1   
    47    22    23 2   
    48    22    24 1   
    49    24    25 1   
    50    24    51 1   
    51    24    52 1   
    52    25    53 1   
    53    25    54 1   
    54    25    55 1   
    55    37    56 1   
@<TRIPOS>SUBSTRUCTURE
     1 8H6         1 TEMP              0 ****  ****    0 ROOT
