@<TRIPOS>MOLECULE
8H7
   71    75     1     0     0
SMALL
No Charge or Current Charge


@<TRIPOS>ATOM
      1 C01         36.2180   -22.4430   -30.4760 ca         1 8H7      -0.113000
      2 C02         36.4040   -23.4320   -31.4560 ca         1 8H7      -0.115000
      3 C03         35.5060   -23.5310   -32.5330 ca         1 8H7      -0.097500
      4 C04         34.4020   -22.6510   -32.6460 cp         1 8H7      -0.030000
      5 C05         34.2390   -21.6540   -31.6530 ca         1 8H7      -0.097500
      6 C06         35.1360   -21.5530   -30.5750 ca         1 8H7      -0.115000
      7 C07         33.4500   -22.7420   -33.7950 cp         1 8H7      -0.043000
      8 C08         33.2340   -21.5890   -34.5870 ca         1 8H7      -0.097000
      9 C09         32.3620   -21.6140   -35.6830 ca         1 8H7      -0.115000
     10 C10         31.6940   -22.8000   -36.0130 ca         1 8H7      -0.088000
     11 C11         31.8840   -23.9640   -35.2470 ca         1 8H7       0.054600
     12 C12         32.7480   -23.9420   -34.1180 ca         1 8H7      -0.033300
     13 C13         32.8730   -25.1850   -33.2280 c3         1 8H7      -0.051800
     14 C15         29.7880   -25.2630   -35.6580 c          1 8H7       0.591600
     15 C16         29.4990   -26.6450   -36.1470 ca         1 8H7      -0.113600
     16 C17         30.7040   -27.2760   -36.3990 ca         1 8H7      -0.205600
     17 C18         31.8050   -26.3230   -36.0860 c          1 8H7       0.603600
     18 C21         28.2760   -27.2980   -36.3530 ca         1 8H7      -0.165000
     19 C22         28.3010   -28.6350   -36.8320 ca         1 8H7       0.189100
     20 C23         29.5440   -29.2800   -37.0900 ca         1 8H7      -0.089300
     21 C24         30.7610   -28.5920   -36.8720 ca         1 8H7      -0.018000
     22 C25         29.5900   -30.7140   -37.6030 c3         1 8H7       0.210100
     23 C27         29.8300   -33.1210   -36.8670 c3         1 8H7       0.029500
     24 C28         30.1360   -34.0160   -35.6260 c3         1 8H7       0.179300
     25 C29         28.5690   -33.6690   -37.6480 c          1 8H7       0.734000
     26 C33         31.3950   -33.5770   -34.8420 c3         1 8H7      -0.133100
     27 C35         25.8370   -28.8100   -36.7590 c3         1 8H7       0.210900
     28 C36         24.8000   -29.8740   -37.0900 ca         1 8H7      -0.091300
     29 C37         24.7620   -31.0750   -36.3520 ca         1 8H7      -0.038000
     30 C38         23.8070   -32.0660   -36.6520 ca         1 8H7      -0.030000
     31 C39         22.8870   -31.8560   -37.6970 ca         1 8H7      -0.048000
     32 C40         22.9240   -30.6610   -38.4360 ca         1 8H7      -0.100000
     33 C41         23.8770   -29.6730   -38.1350 ca         1 8H7      -0.030000
     34 C42         23.7690   -33.2850   -35.8920 cg         1 8H7       0.347000
     35 N14         31.1830   -25.1510   -35.6400 n          1 8H7      -0.331600
     36 N26         29.7390   -31.6630   -36.4810 n7         1 8H7      -0.818400
     37 N43         23.7220   -34.2730   -35.2690 n1         1 8H7      -0.493000
     38 O30         27.5170   -33.8420   -37.0420 o          1 8H7      -0.721500
     39 O31         28.6700   -33.8390   -38.8590 o          1 8H7      -0.721500
     40 O32         30.3370   -35.3750   -36.0380 oh         1 8H7      -0.634000
     41 O34         27.1360   -29.3410   -37.0600 os         1 8H7      -0.280100
     42 H1          36.9120   -22.3650   -29.6420 ha         1 8H7       0.108000
     43 H2          37.2450   -24.1180   -31.3850 ha         1 8H7       0.110000
     44 H3          35.6680   -24.2920   -33.2930 ha         1 8H7       0.118500
     45 H4          33.4040   -20.9600   -31.7200 ha         1 8H7       0.118500
     46 H5          34.9920   -20.7840   -29.8190 ha         1 8H7       0.110000
     47 H6          33.7590   -20.6670   -34.3480 ha         1 8H7       0.111000
     48 H7          32.2120   -20.7180   -36.2810 ha         1 8H7       0.114000
     49 H8          31.0270   -22.8170   -36.8720 ha         1 8H7       0.124000
     50 H9          33.6890   -25.8330   -33.5670 hc         1 8H7       0.050367
     51 H10         33.0690   -24.9180   -32.1840 hc         1 8H7       0.050367
     52 H11         31.9530   -25.7800   -33.2190 hc         1 8H7       0.050367
     53 H12         27.3480   -26.7730   -36.1460 ha         1 8H7       0.133000
     54 H13         31.7190   -29.0710   -37.0650 ha         1 8H7       0.135000
     55 H14         28.6800   -30.9310   -38.1800 h1         1 8H7       0.053700
     56 H15         30.4350   -30.8130   -38.2990 h1         1 8H7       0.053700
     57 H16         30.6850   -33.2310   -37.5480 h1         1 8H7       0.017700
     58 H17         29.2760   -33.9590   -34.9420 h1         1 8H7       0.056700
     59 H18         31.5960   -34.2670   -34.0130 hc         1 8H7       0.022367
     60 H19         32.2760   -33.5590   -35.4950 hc         1 8H7       0.022367
     61 H20         31.2640   -32.5770   -34.4120 hc         1 8H7       0.022367
     62 H21         25.7620   -28.5540   -35.6950 h1         1 8H7       0.034700
     63 H22         25.6440   -27.9040   -37.3480 h1         1 8H7       0.034700
     64 H23         25.4770   -31.2350   -35.5480 ha         1 8H7       0.116000
     65 H24         22.1450   -32.6150   -37.9370 ha         1 8H7       0.117000
     66 H25         22.2130   -30.5010   -39.2440 ha         1 8H7       0.119000
     67 H26         23.8970   -28.7530   -38.7150 ha         1 8H7       0.119000
     68 H27         30.5910   -31.4130   -35.9700 hn         1 8H7       0.363000
     69 H30         30.5530   -35.8870   -35.2300 ho         1 8H7       0.411000
     70 O19         33.0050   -26.5180   -36.2140 o          1 8H7      -0.493000
     71 O20         28.9770   -24.4060   -35.3350 o          1 8H7      -0.494000
@<TRIPOS>BOND
     1     1     2 ar  
     2     1     6 ar  
     3     1    42 1   
     4     2     3 ar  
     5     2    43 1   
     6     3     4 ar  
     7     3    44 1   
     8     4     5 ar  
     9     4     7 1   
    10     5     6 ar  
    11     5    45 1   
    12     6    46 1   
    13     7     8 ar  
    14     7    12 ar  
    15     8     9 ar  
    16     8    47 1   
    17     9    10 ar  
    18     9    48 1   
    19    10    11 ar  
    20    10    49 1   
    21    11    12 ar  
    22    11    35 1   
    23    12    13 1   
    24    13    50 1   
    25    13    51 1   
    26    13    52 1   
    27    14    15 1   
    28    14    35 1   
    29    14    71 2   
    30    15    16 ar  
    31    15    18 ar  
    32    16    17 1   
    33    16    21 ar  
    34    17    35 1   
    35    17    70 2   
    36    18    19 ar  
    37    18    53 1   
    38    19    20 ar  
    39    19    41 1   
    40    20    21 ar  
    41    20    22 1   
    42    21    54 1   
    43    22    36 1   
    44    22    55 1   
    45    22    56 1   
    46    23    24 1   
    47    23    25 1   
    48    23    36 1   
    49    23    57 1   
    50    24    26 1   
    51    24    40 1   
    52    24    58 1   
    53    25    38 1   
    54    25    39 1   
    55    26    59 1   
    56    26    60 1   
    57    26    61 1   
    58    27    28 1   
    59    27    41 1   
    60    27    62 1   
    61    27    63 1   
    62    28    29 ar  
    63    28    33 ar  
    64    29    30 ar  
    65    29    64 1   
    66    30    31 ar  
    67    30    34 1   
    68    31    32 ar  
    69    31    65 1   
    70    32    33 ar  
    71    32    66 1   
    72    33    67 1   
    73    34    37 3   
    74    36    68 1   
    75    40    69 1   
@<TRIPOS>SUBSTRUCTURE
     1 8H7         1 TEMP              0 ****  ****    0 ROOT
