@<TRIPOS>MOLECULE
8H7
   71    75     1     0     0
SMALL
bcc


@<TRIPOS>ATOM
      1 C01         35.7250   -22.1510   -30.2700 ca         1 8H7      -0.131000
      2 C02         36.0300   -23.2030   -31.1240 ca         1 8H7      -0.133000
      3 C03         35.2760   -23.4150   -32.2690 ca         1 8H7      -0.115500
      4 C04         34.2050   -22.5780   -32.5800 cp         1 8H7      -0.030000
      5 C05         33.9110   -21.5210   -31.7190 ca         1 8H7      -0.115500
      6 C06         34.6630   -21.3090   -30.5720 ca         1 8H7      -0.133000
      7 C07         33.4120   -22.7600   -33.8190 cp         1 8H7      -0.043000
      8 C08         33.3170   -21.6850   -34.7010 ca         1 8H7      -0.115000
      9 C09         32.5910   -21.7770   -35.8760 ca         1 8H7      -0.133000
     10 C10         31.9470   -22.9620   -36.1830 ca         1 8H7      -0.106000
     11 C11         32.0290   -24.0330   -35.3050 ca         1 8H7       0.054600
     12 C12         32.7470   -23.9630   -34.1090 ca         1 8H7      -0.033300
     13 C13         32.7750   -25.1310   -33.1680 c3         1 8H7      -0.051800
     14 C15         29.9740   -25.4050   -35.5090 c          1 8H7       0.734100
     15 C16         29.6940   -26.7590   -36.0430 ca         1 8H7      -0.113600
     16 C17         30.8820   -27.3060   -36.4830 ca         1 8H7      -0.205600
     17 C18         31.9630   -26.3360   -36.2330 c          1 8H7       0.746100
     18 C21         28.4930   -27.4260   -36.1380 ca         1 8H7      -0.183000
     19 C22         28.5160   -28.7030   -36.7090 ca         1 8H7       0.189100
     20 C23         29.7180   -29.2690   -37.1890 ca         1 8H7      -0.089300
     21 C24         30.9050   -28.5620   -37.0620 ca         1 8H7      -0.036000
     22 C25         29.7250   -30.6410   -37.8030 c3         1 8H7       0.210100
     23 C27         29.7160   -33.0110   -37.3160 c3         1 8H7       0.029500
     24 C28         29.8290   -34.0210   -36.1740 c3         1 8H7       0.156100
     25 C29         28.4340   -33.2900   -38.1500 c          1 8H7       0.944600
     26 C33         31.1130   -33.8760   -35.3680 c3         1 8H7      -0.133100
     27 C35         26.1610   -28.9540   -36.4380 c3         1 8H7       0.187700
     28 C36         25.1520   -30.0290   -36.7050 ca         1 8H7      -0.091300
     29 C37         24.5440   -30.6980   -35.6550 ca         1 8H7      -0.056000
     30 C38         23.6110   -31.7010   -35.9180 ca         1 8H7      -0.030000
     31 C39         23.2880   -32.0470   -37.2280 ca         1 8H7      -0.066000
     32 C40         23.9020   -31.3770   -38.2740 ca         1 8H7      -0.118000
     33 C41         24.8250   -30.3750   -38.0140 ca         1 8H7      -0.048000
     34 C42         22.9820   -32.3790   -34.8300 cg         1 8H7       0.257800
     35 N14         31.3460   -25.2270   -35.6490 n          1 8H7      -0.465600
     36 N26         29.6710   -31.6610   -36.7690 n7         1 8H7      -0.763200
     37 N43         22.4720   -32.9220   -33.9520 n1         1 8H7      -0.403800
     38 O30         27.3500   -33.1930   -37.5410 o          1 8H7      -0.826800
     39 O31         28.5980   -33.5800   -39.3500 o          1 8H7      -0.826800
     40 O32         29.7590   -35.3040   -36.7710 oh         1 8H7      -0.571800
     41 O34         27.4230   -29.4570   -36.8570 os         1 8H7      -0.256900
     42 H1          36.3130   -21.9870   -29.3760 ha         1 8H7       0.126000
     43 H2          36.8610   -23.8590   -30.9010 ha         1 8H7       0.128000
     44 H3          35.5310   -24.2320   -32.9330 ha         1 8H7       0.136500
     45 H4          33.0800   -20.8630   -31.9430 ha         1 8H7       0.136500
     46 H5          34.4150   -20.4880   -29.9120 ha         1 8H7       0.128000
     47 H6          33.8350   -20.7640   -34.4630 ha         1 8H7       0.129000
     48 H7          32.5350   -20.9340   -36.5510 ha         1 8H7       0.132000
     49 H8          31.3830   -23.0640   -37.1010 ha         1 8H7       0.142000
     50 H9          33.6170   -25.7930   -33.3760 hc         1 8H7       0.050367
     51 H10         32.8700   -24.8050   -32.1340 hc         1 8H7       0.050367
     52 H11         31.8700   -25.7320   -33.2420 hc         1 8H7       0.050367
     53 H12         27.5820   -26.9660   -35.7820 ha         1 8H7       0.151000
     54 H13         31.8290   -28.9950   -37.4250 ha         1 8H7       0.153000
     55 H14         28.8640   -30.7540   -38.4650 h1         1 8H7       0.053700
     56 H15         30.6160   -30.7330   -38.4410 h1         1 8H7       0.053700
     57 H16         30.5940   -33.1450   -37.9730 h1         1 8H7       0.017700
     58 H17         28.9730   -33.8580   -35.5050 h1         1 8H7       0.056700
     59 H18         31.1840   -34.6620   -34.6120 hc         1 8H7       0.022367
     60 H19         31.9930   -33.9440   -36.0110 hc         1 8H7       0.022367
     61 H20         31.1580   -32.9290   -34.8280 hc         1 8H7       0.022367
     62 H21         26.1800   -28.7040   -35.3730 h1         1 8H7       0.034700
     63 H22         25.9120   -28.0460   -36.9950 h1         1 8H7       0.034700
     64 H23         24.7890   -30.4440   -34.6310 ha         1 8H7       0.134000
     65 H24         22.5650   -32.8270   -37.4230 ha         1 8H7       0.135000
     66 H25         23.6560   -31.6350   -39.2950 ha         1 8H7       0.137000
     67 H26         25.2930   -29.8530   -38.8400 ha         1 8H7       0.137000
     68 H27         30.4740   -31.5190   -36.1670 hn         1 8H7       0.307800
     69 H30         29.7920   -35.9600   -36.0680 ho         1 8H7       0.372000
     70 O19         33.1410   -26.4250   -36.4620 o          1 8H7      -0.568500
     71 O20         29.2080   -24.6000   -35.0490 o          1 8H7      -0.569500
@<TRIPOS>BOND
     1     1     2 ar  
     2     1     6 ar  
     3     1    42 1   
     4     2     3 ar  
     5     2    43 1   
     6     3     4 ar  
     7     3    44 1   
     8     4     5 ar  
     9     4     7 1   
    10     5     6 ar  
    11     5    45 1   
    12     6    46 1   
    13     7     8 ar  
    14     7    12 ar  
    15     8     9 ar  
    16     8    47 1   
    17     9    10 ar  
    18     9    48 1   
    19    10    11 ar  
    20    10    49 1   
    21    11    12 ar  
    22    11    35 1   
    23    12    13 1   
    24    13    50 1   
    25    13    51 1   
    26    13    52 1   
    27    14    15 1   
    28    14    35 1   
    29    14    71 2   
    30    15    16 ar  
    31    15    18 ar  
    32    16    17 1   
    33    16    21 ar  
    34    17    35 1   
    35    17    70 2   
    36    18    19 ar  
    37    18    53 1   
    38    19    20 ar  
    39    19    41 1   
    40    20    21 ar  
    41    20    22 1   
    42    21    54 1   
    43    22    36 1   
    44    22    55 1   
    45    22    56 1   
    46    23    24 1   
    47    23    25 1   
    48    23    36 1   
    49    23    57 1   
    50    24    26 1   
    51    24    40 1   
    52    24    58 1   
    53    25    38 1   
    54    25    39 1   
    55    26    59 1   
    56    26    60 1   
    57    26    61 1   
    58    27    28 1   
    59    27    41 1   
    60    27    62 1   
    61    27    63 1   
    62    28    29 ar  
    63    28    33 ar  
    64    29    30 ar  
    65    29    64 1   
    66    30    31 ar  
    67    30    34 1   
    68    31    32 ar  
    69    31    65 1   
    70    32    33 ar  
    71    32    66 1   
    72    33    67 1   
    73    34    37 3   
    74    36    68 1   
    75    40    69 1   
@<TRIPOS>SUBSTRUCTURE
     1 8H7         1 TEMP              0 ****  ****    0 ROOT
