@<TRIPOS>MOLECULE
8H8
   14    14     1     0     0
SMALL
abcg2


@<TRIPOS>ATOM
      1 FAG         -1.1900    -1.8850     0.0740 f          1 8H8      -0.157000
      2 CAF         -0.3510    -0.8520     0.0170 ca         1 8H8       0.253000
      3 CAI          1.0000    -1.0840    -0.0470 ca         1 8H8      -0.205000
      4 CAH          1.8630     0.0130    -0.1060 ca         1 8H8       0.195100
      5 OAJ          3.1680    -0.2470    -0.1650 oh         1 8H8      -0.518100
      6 CAE          1.3500     1.3140    -0.1010 ca         1 8H8      -0.236000
      7 CAA         -0.0120     1.5160    -0.0360 ca         1 8H8       0.000000
      8 CAB         -0.8910     0.4320     0.0250 ca         1 8H8      -0.108000
      9 CAC         -2.2970     0.6150     0.0950 cg         1 8H8       0.333000
     10 NAD         -3.4370     0.7700     0.1570 n1         1 8H8      -0.443000
     11 H1           1.3850    -2.0950    -0.0510 ha         1 8H8       0.154000
     12 H2           3.6850     0.5670    -0.1970 ho         1 8H8       0.476000
     13 H3           2.0160     2.1660    -0.1480 ha         1 8H8       0.125000
     14 H4          -0.4070     2.5220    -0.0300 ha         1 8H8       0.130000
@<TRIPOS>BOND
     1     1     2 1   
     2     2     3 ar  
     3     2     8 ar  
     4     3     4 ar  
     5     3    11 1   
     6     4     5 1   
     7     4     6 ar  
     8     5    12 1   
     9     6     7 ar  
    10     6    13 1   
    11     7     8 ar  
    12     7    14 1   
    13     8     9 1   
    14     9    10 3   
@<TRIPOS>SUBSTRUCTURE
     1 8H8         1 TEMP              0 ****  ****    0 ROOT
