@<TRIPOS>MOLECULE
8H8
   14    14     1     0     0
SMALL
No Charge or Current Charge


@<TRIPOS>ATOM
      1 FAG         -1.2060    -1.9600     0.0780 f          1 8H8      -0.157000
      2 CAF         -0.3800    -0.8890     0.0210 ca         1 8H8       0.253000
      3 CAI          1.0040    -1.1020    -0.0460 ca         1 8H8      -0.205000
      4 CAH          1.8770    -0.0090    -0.1060 ca         1 8H8       0.195100
      5 OAJ          3.2190    -0.2230    -0.1700 oh         1 8H8      -0.518100
      6 CAE          1.3700     1.2980    -0.0990 ca         1 8H8      -0.236000
      7 CAA         -0.0190     1.5160    -0.0330 ca         1 8H8       0.000000
      8 CAB         -0.9010     0.4200     0.0270 ca         1 8H8      -0.108000
      9 CAC         -2.3160     0.6430     0.0950 cg         1 8H8       0.333000
     10 NAD         -3.4660     0.8380     0.1500 n1         1 8H8      -0.443000
     11 H1           1.3960    -2.1140    -0.0510 ha         1 8H8       0.154000
     12 H2           3.6670     0.6480    -0.2050 ho         1 8H8       0.476000
     13 H3           2.0420     2.1520    -0.1460 ha         1 8H8       0.125000
     14 H4          -0.4060     2.5350    -0.0280 ha         1 8H8       0.130000
@<TRIPOS>BOND
     1     1     2 1   
     2     2     3 ar  
     3     2     8 ar  
     4     3     4 ar  
     5     3    11 1   
     6     4     5 1   
     7     4     6 ar  
     8     5    12 1   
     9     6     7 ar  
    10     6    13 1   
    11     7     8 ar  
    12     7    14 1   
    13     8     9 1   
    14     9    10 3   
@<TRIPOS>SUBSTRUCTURE
     1 8H8         1 TEMP              0 ****  ****    0 ROOT
