@<TRIPOS>MOLECULE
8H9
  103   105     1     0     0
SMALL
No Charge or Current Charge


@<TRIPOS>ATOM
      1 C1         -14.1680   -10.4770   -17.2360 c          1 8H9       0.597100
      2 C10        -10.1270   -11.3040   -20.6300 c3         1 8H9      -0.089100
      3 C11         -9.8200   -16.7360   -19.6660 c3         1 8H9       0.052700
      4 C12         -9.9550   -15.9030   -18.3470 c          1 8H9       0.580100
      5 C13         -8.2480   -14.2030   -19.1150 c5         1 8H9       0.131000
      6 C14         -9.7080   -13.6840   -17.1550 c5         1 8H9       0.057700
      7 C15        -11.1680   -13.1230   -17.1140 c          1 8H9       0.592100
      8 C16         -7.7560   -12.9010   -18.4760 cx         1 8H9      -0.120700
      9 C17        -12.5880   -11.6940   -15.5830 c3         1 8H9       0.070700
     10 C18         -7.1920   -12.9800   -17.0640 cx         1 8H9      -0.073000
     11 C19        -12.6380   -11.5400   -14.0410 c3         1 8H9      -0.079400
     12 C2         -13.8970   -10.9270   -21.8050 c3         1 8H9      -0.071400
     13 C20        -12.4350   -12.8580   -13.2360 c5         1 8H9      -0.155700
     14 C21        -13.4520   -13.9900   -13.5600 c5         1 8H9      -0.095400
     15 C22        -13.3480   -14.8760   -12.2890 c5         1 8H9       0.100000
     16 C23         -6.7990   -14.3140   -16.4050 c3         1 8H9      -0.066600
     17 C24        -12.5960   -12.6880   -11.7190 c          1 8H9       0.566000
     18 C25         -6.2150   -11.8920   -16.6230 c3         1 8H9      -0.066600
     19 C27         -6.1320   -20.4720   -18.0680 c3         1 8H9      -0.105433
     20 C28         -7.9710   -22.0570   -17.3900 c3         1 8H9      -0.105433
     21 C29         -7.5050   -20.0260   -15.9700 c3         1 8H9      -0.105433
     22 C3         -15.0330   -10.1530   -19.5780 c3         1 8H9       0.108000
     23 C30        -11.0070   -16.5630   -20.6830 c3         1 8H9      -0.039000
     24 C31        -11.0940   -15.0930   -21.1720 c3         1 8H9      -0.088767
     25 C32        -12.3660   -16.9530   -20.0380 c3         1 8H9      -0.088767
     26 C34         -8.6390   -12.5770   -17.3030 cx         1 8H9      -0.137700
     27 C4         -14.5190    -9.7670   -20.9830 c3         1 8H9      -0.092400
     28 C5         -12.6100   -11.5680   -21.2330 c3         1 8H9      -0.077400
     29 C6         -11.4060   -10.6050   -21.1240 c3         1 8H9      -0.075400
     30 C7          -7.5360   -20.5730   -17.4190 c3         1 8H9       0.154400
     31 C8         -12.9020   -10.3510   -16.3280 c3         1 8H9       0.077300
     32 N10         -9.5970   -18.1360   -19.2800 ns         1 8H9      -0.495900
     33 N13         -9.4480   -14.5820   -18.3250 n          1 8H9      -0.390800
     34 N16        -11.3170   -12.3210   -15.9960 ns         1 8H9      -0.512900
     35 N2         -13.9730   -10.1910   -18.5690 ns         1 8H9      -0.491900
     36 N23        -13.1540   -13.8520   -11.2650 ns         1 8H9      -0.517900
     37 N8          -8.5290   -19.8480   -18.2220 ns         1 8H9      -0.522900
     38 O26        -12.4930   -11.6850   -11.0320 o          1 8H9      -0.555000
     39 O29         -7.6990   -17.7000   -18.1440 o          1 8H9      -0.655100
     40 O33        -10.5620   -16.3350   -17.3680 o          1 8H9      -0.631100
     41 O38        -12.0720   -13.3100   -17.9160 o          1 8H9      -0.592100
     42 O5         -15.2720   -10.7800   -16.7970 o          1 8H9      -0.611100
     43 O9         -11.7320    -9.8770   -17.0500 oh         1 8H9      -0.668000
     44 H1          -9.2980   -10.5890   -20.5680 hc         1 8H9       0.032367
     45 H2         -10.2850   -11.7340   -19.6350 hc         1 8H9       0.032367
     46 H3          -9.8350   -12.1100   -21.3150 hc         1 8H9       0.032367
     47 H4          -8.9070   -16.4100   -20.1760 h1         1 8H9       0.092700
     48 H5          -8.5160   -14.0500   -20.1680 h1         1 8H9       0.068200
     49 H6          -7.4820   -14.9900   -19.0860 h1         1 8H9       0.068200
     50 H7          -9.5740   -14.2330   -16.2140 h1         1 8H9       0.084700
     51 H8          -7.4130   -12.0910   -19.1160 hc         1 8H9       0.100700
     52 H9         -13.3890   -12.4000   -15.8440 h1         1 8H9       0.089700
     53 H10        -11.8800   -10.8060   -13.7360 hc         1 8H9       0.075700
     54 H11        -13.6080   -11.1020   -13.7700 hc         1 8H9       0.075700
     55 H12        -13.6830   -10.5610   -22.8170 hc         1 8H9       0.038700
     56 H13        -14.6520   -11.7150   -21.9210 hc         1 8H9       0.038700
     57 H14        -11.4240   -13.2470   -13.4020 hc         1 8H9       0.089700
     58 H15        -13.2100   -14.5400   -14.4760 hc         1 8H9       0.064700
     59 H16        -14.4680   -13.5920   -13.6700 hc         1 8H9       0.064700
     60 H17        -14.2570   -15.4720   -12.1280 h1         1 8H9       0.042200
     61 H18        -12.4880   -15.5570   -12.3400 h1         1 8H9       0.042200
     62 H19         -6.8280   -14.2280   -15.3120 hc         1 8H9       0.042700
     63 H20         -7.4480   -15.1530   -16.6750 hc         1 8H9       0.042700
     64 H21         -5.7780   -14.5990   -16.6860 hc         1 8H9       0.042700
     65 H22         -6.2350   -11.7630   -15.5340 hc         1 8H9       0.042700
     66 H23         -5.1880   -12.1410   -16.9150 hc         1 8H9       0.042700
     67 H24         -6.4590   -10.9220   -17.0740 hc         1 8H9       0.042700
     68 H25        -10.7790   -18.5300   -21.6640 hc         1 8H9       0.039922
     69 H26        -11.5440   -17.3060   -22.6840 hc         1 8H9       0.039922
     70 H27         -9.7970   -17.2430   -22.3900 hc         1 8H9       0.039922
     71 H28         -6.1580   -20.8130   -19.1100 hc         1 8H9       0.044700
     72 H29         -5.7550   -19.4430   -18.0560 hc         1 8H9       0.044700
     73 H30         -5.4090   -21.0940   -17.5260 hc         1 8H9       0.044700
     74 H31         -8.9690   -22.1640   -16.9450 hc         1 8H9       0.044700
     75 H32         -8.0040   -22.4760   -18.4030 hc         1 8H9       0.044700
     76 H33         -7.2710   -22.6590   -16.7970 hc         1 8H9       0.044700
     77 H34         -8.5040   -20.0590   -15.5200 hc         1 8H9       0.044700
     78 H35         -6.8300   -20.6230   -15.3450 hc         1 8H9       0.044700
     79 H36         -7.1530   -18.9890   -15.9380 hc         1 8H9       0.044700
     80 H37        -15.7700    -9.4040   -19.2580 h1         1 8H9       0.048700
     81 H38        -15.5380   -11.1270   -19.6170 h1         1 8H9       0.048700
     82 H39        -11.3010   -14.4050   -20.3450 hc         1 8H9       0.039922
     83 H40        -10.1590   -14.7810   -21.6520 hc         1 8H9       0.039922
     84 H41        -11.9000   -14.9730   -21.9060 hc         1 8H9       0.039922
     85 H42        -12.6160   -16.2890   -19.2030 hc         1 8H9       0.039922
     86 H43        -13.1800   -16.8800   -20.7710 hc         1 8H9       0.039922
     87 H44        -12.3500   -17.9830   -19.6620 hc         1 8H9       0.039922
     88 H45         -8.9060   -11.5360   -17.1350 hc         1 8H9       0.099700
     89 H46        -13.8190    -8.9270   -20.9100 hc         1 8H9       0.046200
     90 H47        -15.3770    -9.3910   -21.5550 hc         1 8H9       0.046200
     91 H48        -12.8200   -12.0110   -20.2530 hc         1 8H9       0.043700
     92 H49        -12.3280   -12.4000   -21.8890 hc         1 8H9       0.043700
     93 H50        -11.2110   -10.1540   -22.1050 hc         1 8H9       0.034200
     94 H51        -11.6450    -9.7860   -20.4350 hc         1 8H9       0.034200
     95 H52        -13.1770    -9.5970   -15.5790 h1         1 8H9       0.070700
     96 H53        -10.3210   -18.8110   -19.4600 hn         1 8H9       0.307500
     97 H54        -10.5230   -12.2650   -15.3660 hn         1 8H9       0.320500
     98 H55        -13.0240    -9.9460   -18.8280 hn         1 8H9       0.337500
     99 H56        -13.4240   -13.9220   -10.2910 hn         1 8H9       0.324500
    100 H57         -9.2900   -20.3880   -18.6090 hn         1 8H9       0.308500
    101 H58        -11.0230   -10.5270   -16.8540 ho         1 8H9       0.463000
    102 C26        -10.7660   -17.4650   -21.9270 c3         1 8H9      -0.088767
    103 C9          -8.5330   -18.5070   -18.5140 c          1 8H9       0.647100
@<TRIPOS>BOND
     1     1    31 1   
     2     1    35 1   
     3     1    42 2   
     4     2    29 1   
     5     2    44 1   
     6     2    45 1   
     7     2    46 1   
     8     3     4 1   
     9     3    23 1   
    10     3    32 1   
    11     3    47 1   
    12     4    33 1   
    13     4    40 2   
    14     5     8 1   
    15     5    33 1   
    16     5    48 1   
    17     5    49 1   
    18     6     7 1   
    19     6    26 1   
    20     6    33 1   
    21     6    50 1   
    22     7    34 1   
    23     7    41 2   
    24     8    10 1   
    25     8    26 1   
    26     8    51 1   
    27     9    11 1   
    28     9    31 1   
    29     9    34 1   
    30     9    52 1   
    31    10    16 1   
    32    10    18 1   
    33    10    26 1   
    34    11    13 1   
    35    11    53 1   
    36    11    54 1   
    37    12    27 1   
    38    12    28 1   
    39    12    55 1   
    40    12    56 1   
    41    13    14 1   
    42    13    17 1   
    43    13    57 1   
    44    14    15 1   
    45    14    58 1   
    46    14    59 1   
    47    15    36 1   
    48    15    60 1   
    49    15    61 1   
    50    16    62 1   
    51    16    63 1   
    52    16    64 1   
    53    17    36 1   
    54    17    38 2   
    55    18    65 1   
    56    18    66 1   
    57    18    67 1   
    58    19    30 1   
    59    19    71 1   
    60    19    72 1   
    61    19    73 1   
    62    20    30 1   
    63    20    74 1   
    64    20    75 1   
    65    20    76 1   
    66    21    30 1   
    67    21    77 1   
    68    21    78 1   
    69    21    79 1   
    70    22    27 1   
    71    22    35 1   
    72    22    80 1   
    73    22    81 1   
    74    23    24 1   
    75    23    25 1   
    76    23   102 1   
    77    24    82 1   
    78    24    83 1   
    79    24    84 1   
    80    25    85 1   
    81    25    86 1   
    82    25    87 1   
    83    26    88 1   
    84    27    89 1   
    85    27    90 1   
    86    28    29 1   
    87    28    91 1   
    88    28    92 1   
    89    29    93 1   
    90    29    94 1   
    91    30    37 1   
    92    31    43 1   
    93    31    95 1   
    94    32    96 1   
    95    32   103 1   
    96    34    97 1   
    97    35    98 1   
    98    36    99 1   
    99    37   100 1   
   100    37   103 1   
   101    39   103 2   
   102    43   101 1   
   103    68   102 1   
   104    69   102 1   
   105    70   102 1   
@<TRIPOS>SUBSTRUCTURE
     1 8H9         1 TEMP              0 ****  ****    0 ROOT
