@<TRIPOS>MOLECULE
8H9
  103   105     1     0     0
SMALL
bcc


@<TRIPOS>ATOM
      1 C1         -13.7270   -10.0090   -16.0030 c          1 8H9       0.664100
      2 C10        -10.4400    -9.7850   -19.9410 c3         1 8H9      -0.089100
      3 C11         -9.9030   -17.5300   -18.5700 c3         1 8H9       0.052700
      4 C12         -9.9530   -16.2060   -17.8100 c          1 8H9       0.647100
      5 C13         -8.5890   -15.0410   -19.5810 c5         1 8H9       0.131000
      6 C14         -9.3680   -13.8820   -17.5850 c5         1 8H9       0.057700
      7 C15        -10.7600   -13.2690   -17.7100 c          1 8H9       0.659100
      8 C16         -7.8930   -13.7050   -19.5180 cx         1 8H9      -0.120700
      9 C17        -12.5990   -12.1990   -16.4560 c3         1 8H9       0.070700
     10 C18         -6.9370   -13.4310   -18.3910 cx         1 8H9      -0.073000
     11 C19        -13.5700   -13.1550   -15.7650 c3         1 8H9      -0.079400
     12 C2         -14.1020    -8.3920   -20.0290 c3         1 8H9      -0.071400
     13 C20        -13.8370   -14.4140   -16.5730 c5         1 8H9      -0.155700
     14 C21        -14.6120   -14.2110   -17.8750 c5         1 8H9      -0.095400
     15 C22        -15.3480   -15.5380   -18.0710 c5         1 8H9       0.100000
     16 C23         -6.3670   -14.5340   -17.5290 c3         1 8H9      -0.066600
     17 C24        -14.6830   -15.4310   -15.8190 c          1 8H9       0.708500
     18 C25         -5.9500   -12.3130   -18.6400 c3         1 8H9      -0.066600
     19 C27         -5.4330   -20.4170   -17.1050 c3         1 8H9      -0.105433
     20 C28         -6.2930   -20.4140   -14.7710 c3         1 8H9      -0.105433
     21 C29         -5.4950   -18.2820   -15.7780 c3         1 8H9      -0.105433
     22 C3         -14.6750    -8.3110   -17.5020 c3         1 8H9       0.108000
     23 C30        -11.2810   -17.9480   -19.1480 c3         1 8H9      -0.039000
     24 C31        -11.8250   -16.8030   -20.0050 c3         1 8H9      -0.088767
     25 C32        -12.3160   -18.3060   -18.0780 c3         1 8H9      -0.088767
     26 C34         -8.3700   -12.9890   -18.2880 cx         1 8H9      -0.137700
     27 C4         -14.2690    -7.5540   -18.7590 c3         1 8H9      -0.092400
     28 C5         -12.9410    -9.3870   -20.0720 c3         1 8H9      -0.077400
     29 C6         -11.5590    -8.7530   -19.9480 c3         1 8H9      -0.075400
     30 C7          -6.2070   -19.6060   -16.0650 c3         1 8H9       0.154400
     31 C8         -12.4770   -10.8400   -15.7150 c3         1 8H9       0.054100
     32 N10         -9.3480   -18.5370   -17.6960 ns         1 8H9      -0.562900
     33 N13         -9.3180   -15.1360   -18.3180 n          1 8H9      -0.457800
     34 N16        -11.2810   -12.7930   -16.5590 ns         1 8H9      -0.579900
     35 N2         -13.5860    -9.1100   -16.9790 ns         1 8H9      -0.558900
     36 N23        -15.5110   -16.0040   -16.7100 ns         1 8H9      -0.584900
     37 N8          -7.5920   -19.3840   -16.4900 ns         1 8H9      -0.589900
     38 O26        -14.6100   -15.6940   -14.6300 o          1 8H9      -0.630500
     39 O29         -7.2070   -18.1840   -18.3860 o          1 8H9      -0.655100
     40 O33        -10.5350   -16.1360   -16.7320 o          1 8H9      -0.631100
     41 O38        -11.3030   -13.1830   -18.7970 o          1 8H9      -0.592100
     42 O5         -14.7780   -10.2130   -15.4090 o          1 8H9      -0.611100
     43 O9         -11.3480   -10.1200   -16.1290 oh         1 8H9      -0.605800
     44 H1          -9.4600    -9.3120   -19.8810 hc         1 8H9       0.032367
     45 H2         -10.5370   -10.4560   -19.0870 hc         1 8H9       0.032367
     46 H3         -10.4590   -10.3980   -20.8440 hc         1 8H9       0.032367
     47 H4          -9.2340   -17.4510   -19.4260 h1         1 8H9       0.092700
     48 H5          -9.2710   -15.0630   -20.4350 h1         1 8H9       0.068200
     49 H6          -7.8890   -15.8710   -19.6850 h1         1 8H9       0.068200
     50 H7          -9.1040   -14.0480   -16.5370 h1         1 8H9       0.084700
     51 H8          -7.7600   -13.1790   -20.4560 hc         1 8H9       0.100700
     52 H9         -12.9280   -12.0030   -17.4790 h1         1 8H9       0.089700
     53 H10        -13.1620   -13.4200   -14.7850 hc         1 8H9       0.075700
     54 H11        -14.5140   -12.6400   -15.5810 hc         1 8H9       0.075700
     55 H12        -13.9910    -7.7010   -20.8700 hc         1 8H9       0.038700
     56 H13        -15.0360    -8.9340   -20.2090 hc         1 8H9       0.038700
     57 H14        -12.8890   -14.9260   -16.7840 hc         1 8H9       0.089700
     58 H15        -13.9750   -13.9640   -18.7200 hc         1 8H9       0.064700
     59 H16        -15.3340   -13.4000   -17.7490 hc         1 8H9       0.064700
     60 H17        -16.3130   -15.4160   -18.5630 h1         1 8H9       0.042200
     61 H18        -14.7560   -16.2420   -18.6630 h1         1 8H9       0.042200
     62 H19         -6.1120   -14.1480   -16.5410 hc         1 8H9       0.042700
     63 H20         -7.0380   -15.3800   -17.3890 hc         1 8H9       0.042700
     64 H21         -5.4500   -14.9210   -17.9770 hc         1 8H9       0.042700
     65 H22         -5.6240   -11.8650   -17.6990 hc         1 8H9       0.042700
     66 H23         -5.0620   -12.6860   -19.1550 hc         1 8H9       0.042700
     67 H24         -6.3790   -11.5200   -19.2540 hc         1 8H9       0.042700
     68 H25        -10.6600   -20.0130   -19.4740 hc         1 8H9       0.039922
     69 H26        -11.9920   -19.4830   -20.5010 hc         1 8H9       0.039922
     70 H27        -10.3480   -18.9450   -20.8450 hc         1 8H9       0.039922
     71 H28         -5.9420   -21.3590   -17.3170 hc         1 8H9       0.044700
     72 H29         -5.3170   -19.8720   -18.0400 hc         1 8H9       0.044700
     73 H30         -4.4370   -20.6520   -16.7270 hc         1 8H9       0.044700
     74 H31         -6.8350   -19.8660   -13.9970 hc         1 8H9       0.044700
     75 H32         -6.7960   -21.3700   -14.9310 hc         1 8H9       0.044700
     76 H33         -5.2930   -20.6230   -14.3920 hc         1 8H9       0.044700
     77 H34         -6.0450   -17.6990   -15.0380 hc         1 8H9       0.044700
     78 H35         -4.4970   -18.4720   -15.3810 hc         1 8H9       0.044700
     79 H36         -5.3860   -17.6800   -16.6780 hc         1 8H9       0.044700
     80 H37        -15.0090    -7.5960   -16.7430 h1         1 8H9       0.048700
     81 H38        -15.5280    -8.9590   -17.7190 h1         1 8H9       0.048700
     82 H39        -12.0490   -15.9100   -19.4170 hc         1 8H9       0.039922
     83 H40        -11.1230   -16.5230   -20.7930 hc         1 8H9       0.039922
     84 H41        -12.7550   -17.1090   -20.4880 hc         1 8H9       0.039922
     85 H42        -12.5620   -17.4640   -17.4340 hc         1 8H9       0.039922
     86 H43        -13.2370   -18.6280   -18.5670 hc         1 8H9       0.039922
     87 H44        -11.9890   -19.1350   -17.4470 hc         1 8H9       0.039922
     88 H45         -8.5780   -11.9240   -18.2960 hc         1 8H9       0.099700
     89 H46        -13.3670    -6.9680   -18.5570 hc         1 8H9       0.046200
     90 H47        -15.0540    -6.8180   -18.9470 hc         1 8H9       0.046200
     91 H48        -13.0680   -10.1580   -19.3070 hc         1 8H9       0.043700
     92 H49        -12.9890    -9.9200   -21.0270 hc         1 8H9       0.043700
     93 H50        -11.4140    -8.0500   -20.7740 hc         1 8H9       0.034200
     94 H51        -11.4880    -8.1500   -19.0370 hc         1 8H9       0.034200
     95 H52        -12.4470   -11.0310   -14.6330 h1         1 8H9       0.070700
     96 H53         -9.9090   -18.7670   -16.8900 hn         1 8H9       0.307500
     97 H54        -10.8380   -13.0800   -15.6960 hn         1 8H9       0.320500
     98 H55        -12.6570    -8.9610   -17.3390 hn         1 8H9       0.337500
     99 H56        -16.0880   -16.7950   -16.4710 hn         1 8H9       0.324500
    100 H57         -8.3050   -19.6910   -15.8480 hn         1 8H9       0.308500
    101 H58        -10.6430   -10.7470   -16.3340 ho         1 8H9       0.424000
    102 C26        -11.0530   -19.1690   -20.0410 c3         1 8H9      -0.088767
    103 C9          -7.9840   -18.6630   -17.5660 c          1 8H9       0.781100
@<TRIPOS>BOND
     1     1    31 1   
     2     1    35 1   
     3     1    42 2   
     4     2    29 1   
     5     2    44 1   
     6     2    45 1   
     7     2    46 1   
     8     3     4 1   
     9     3    23 1   
    10     3    32 1   
    11     3    47 1   
    12     4    33 1   
    13     4    40 2   
    14     5     8 1   
    15     5    33 1   
    16     5    48 1   
    17     5    49 1   
    18     6     7 1   
    19     6    26 1   
    20     6    33 1   
    21     6    50 1   
    22     7    34 1   
    23     7    41 2   
    24     8    10 1   
    25     8    26 1   
    26     8    51 1   
    27     9    11 1   
    28     9    31 1   
    29     9    34 1   
    30     9    52 1   
    31    10    16 1   
    32    10    18 1   
    33    10    26 1   
    34    11    13 1   
    35    11    53 1   
    36    11    54 1   
    37    12    27 1   
    38    12    28 1   
    39    12    55 1   
    40    12    56 1   
    41    13    14 1   
    42    13    17 1   
    43    13    57 1   
    44    14    15 1   
    45    14    58 1   
    46    14    59 1   
    47    15    36 1   
    48    15    60 1   
    49    15    61 1   
    50    16    62 1   
    51    16    63 1   
    52    16    64 1   
    53    17    36 1   
    54    17    38 2   
    55    18    65 1   
    56    18    66 1   
    57    18    67 1   
    58    19    30 1   
    59    19    71 1   
    60    19    72 1   
    61    19    73 1   
    62    20    30 1   
    63    20    74 1   
    64    20    75 1   
    65    20    76 1   
    66    21    30 1   
    67    21    77 1   
    68    21    78 1   
    69    21    79 1   
    70    22    27 1   
    71    22    35 1   
    72    22    80 1   
    73    22    81 1   
    74    23    24 1   
    75    23    25 1   
    76    23   102 1   
    77    24    82 1   
    78    24    83 1   
    79    24    84 1   
    80    25    85 1   
    81    25    86 1   
    82    25    87 1   
    83    26    88 1   
    84    27    89 1   
    85    27    90 1   
    86    28    29 1   
    87    28    91 1   
    88    28    92 1   
    89    29    93 1   
    90    29    94 1   
    91    30    37 1   
    92    31    43 1   
    93    31    95 1   
    94    32    96 1   
    95    32   103 1   
    96    34    97 1   
    97    35    98 1   
    98    36    99 1   
    99    37   100 1   
   100    37   103 1   
   101    39   103 2   
   102    43   101 1   
   103    68   102 1   
   104    69   102 1   
   105    70   102 1   
@<TRIPOS>SUBSTRUCTURE
     1 8H9         1 TEMP              0 ****  ****    0 ROOT
