@<TRIPOS>MOLECULE
8HC
   20    21     1     0     0
SMALL
No Charge or Current Charge


@<TRIPOS>ATOM
      1 O01         -3.8490    -0.5080     0.0420 o          1 8HC      -0.697000
      2 C02         -2.9350     0.3110     0.0680 c          1 8HC       0.612500
      3 O03         -3.1570     1.5190     0.1110 o          1 8HC      -0.697000
      4 C04         -1.4650    -0.1990     0.0450 ca         1 8HC       0.308500
      5 N05         -0.4250     0.7000     0.0730 nb         1 8HC      -0.672000
      6 C06          0.8570     0.2450     0.0520 ca         1 8HC       0.184000
      7 C07          1.1590    -1.1390     0.0030 ca         1 8HC      -0.055000
      8 C08          2.4970    -1.5810    -0.0180 ca         1 8HC      -0.145000
      9 C09          3.5490    -0.6510     0.0110 ca         1 8HC      -0.088000
     10 C10          3.2670     0.7240     0.0610 ca         1 8HC      -0.201000
     11 C11          1.9340     1.1650     0.0810 ca         1 8HC       0.178100
     12 O12          1.6660     2.5030     0.1290 oh         1 8HC      -0.548100
     13 C13          0.1080    -2.0680    -0.0270 ca         1 8HC      -0.122000
     14 C14         -1.2120    -1.5910    -0.0050 ca         1 8HC      -0.109000
     15 H081         2.7220    -2.6440    -0.0560 ha         1 8HC       0.099000
     16 H091         4.5810    -0.9960    -0.0040 ha         1 8HC       0.091000
     17 H101         4.0790     1.4450     0.0840 ha         1 8HC       0.110000
     18 H121         0.6810     2.5580     0.1350 ho         1 8HC       0.515000
     19 H131         0.3060    -3.1370    -0.0650 ha         1 8HC       0.096000
     20 H141        -2.0380    -2.2960    -0.0270 ha         1 8HC       0.141000
@<TRIPOS>BOND
     1     1     2 1   
     2     2     3 1   
     3     2     4 1   
     4     4     5 ar  
     5     4    14 ar  
     6     5     6 ar  
     7     6     7 ar  
     8     6    11 ar  
     9     7     8 ar  
    10     7    13 ar  
    11     8     9 ar  
    12     8    15 1   
    13     9    10 ar  
    14     9    16 1   
    15    10    11 ar  
    16    10    17 1   
    17    11    12 1   
    18    12    18 1   
    19    13    14 ar  
    20    13    19 1   
    21    14    20 1   
@<TRIPOS>SUBSTRUCTURE
     1 8HC         1 TEMP              0 ****  ****    0 ROOT
