@<TRIPOS>MOLECULE
8HC
   20    21     1     0     0
SMALL
bcc


@<TRIPOS>ATOM
      1 O01         -3.7470    -0.4800     0.0520 o          1 8HC      -0.802300
      2 C02         -2.8370     0.3710     0.0680 c          1 8HC       0.823100
      3 O03         -2.9500     1.6050     0.0990 o          1 8HC      -0.802300
      4 C04         -1.4120    -0.1910     0.0450 ca         1 8HC       0.373800
      5 N05         -0.4100     0.6520     0.0710 nb         1 8HC      -0.672000
      6 C06          0.8500     0.1780     0.0510 ca         1 8HC       0.314600
      7 C07          1.1720    -1.1940     0.0000 ca         1 8HC      -0.120300
      8 C08          2.5270    -1.5900    -0.0210 ca         1 8HC      -0.163000
      9 C09          3.5060    -0.6320     0.0110 ca         1 8HC      -0.106000
     10 C10          3.2000     0.7430     0.0640 ca         1 8HC      -0.219000
     11 C11          1.8900     1.1500     0.0830 ca         1 8HC       0.112800
     12 O12          1.5520     2.4440     0.1320 oh         1 8HC      -0.509100
     13 C13          0.0750    -2.0840    -0.0270 ca         1 8HC      -0.140000
     14 C14         -1.1980    -1.5900    -0.0030 ca         1 8HC      -0.192300
     15 H081         2.7770    -2.6420    -0.0620 ha         1 8HC       0.117000
     16 H091         4.5480    -0.9270    -0.0050 ha         1 8HC       0.109000
     17 H101         3.9970     1.4760     0.0880 ha         1 8HC       0.128000
     18 H121         0.5790     2.4800     0.1330 ho         1 8HC       0.476000
     19 H131         0.2530    -3.1520    -0.0640 ha         1 8HC       0.114000
     20 H141        -2.0480    -2.2560    -0.0210 ha         1 8HC       0.159000
@<TRIPOS>BOND
     1     1     2 1   
     2     2     3 1   
     3     2     4 1   
     4     4     5 ar  
     5     4    14 ar  
     6     5     6 ar  
     7     6     7 ar  
     8     6    11 ar  
     9     7     8 ar  
    10     7    13 ar  
    11     8     9 ar  
    12     8    15 1   
    13     9    10 ar  
    14     9    16 1   
    15    10    11 ar  
    16    10    17 1   
    17    11    12 1   
    18    12    18 1   
    19    13    14 ar  
    20    13    19 1   
    21    14    20 1   
@<TRIPOS>SUBSTRUCTURE
     1 8HC         1 TEMP              0 ****  ****    0 ROOT
