@<TRIPOS>MOLECULE
8HD
   89    92     1     0     0
SMALL
bcc


@<TRIPOS>ATOM
      1 C2          -3.2060     3.8420     1.3970 ca         1 8HD      -0.034300
      2 C39         -2.4380     4.7300     2.3350 c3         1 8HD       0.178700
      3 O40         -1.3770     5.3520     1.6640 oh         1 8HD      -0.592800
      4 C3          -2.7510     3.5390     0.1200 ca         1 8HD      -0.136000
      5 C4          -3.4730     2.6840    -0.7030 ca         1 8HD      -0.032500
      6 C5          -4.6570     2.1310    -0.2430 ca         1 8HD      -0.292500
      7 C6          -5.1380     2.4380     1.0260 ca         1 8HD      -0.032500
      8 C7          -4.4100     3.2880     1.8340 ca         1 8HD      -0.136000
      9 S8          -5.5520     0.9740    -1.2470 sy         1 8HD       1.328200
     10 O9          -6.9510     1.3700    -1.2160 o          1 8HD      -0.609300
     11 O10         -4.8610     0.8830    -2.5240 o          1 8HD      -0.609300
     12 N11         -5.4350    -0.4920    -0.5220 n3         1 8HD      -0.776500
     13 C12         -6.3940    -0.8970     0.5050 c3         1 8HD       0.227800
     14 C13         -7.1660    -2.1640     0.1360 c3         1 8HD      -0.070700
     15 C14         -8.0920    -2.5230     1.2940 c3         1 8HD      -0.089600
     16 C15         -7.9440    -1.9950    -1.1620 c3         1 8HD      -0.089600
     17 C16         -4.2180    -1.2770    -0.6940 c3         1 8HD       0.185800
     18 C17         -3.0280    -0.8090     0.1420 c3         1 8HD       0.099100
     19 O18         -3.2770    -0.8540     1.5270 oh         1 8HD      -0.592800
     20 C19         -1.7380    -1.5510    -0.2390 c3         1 8HD       0.082700
     21 N20         -0.6370    -0.9430     0.4690 ns         1 8HD      -0.563900
     22 C21          0.5110    -0.5530    -0.1120 c          1 8HD       0.686700
     23 O22          0.7370    -0.6460    -1.3080 o          1 8HD      -0.587100
     24 C32         -1.7890    -3.0650     0.0300 c3         1 8HD      -0.048100
     25 C33          0.5010    -3.8990     0.6590 ca         1 8HD      -0.118500
     26 C34          1.7300    -4.4550     0.3320 ca         1 8HD      -0.122000
     27 C35          1.9880    -4.8550    -0.9720 ca         1 8HD      -0.120000
     28 C36          1.0080    -4.6970    -1.9440 ca         1 8HD      -0.122000
     29 C37         -0.2170    -4.1360    -1.6130 ca         1 8HD      -0.118500
     30 C38         -0.4860    -3.7300    -0.3080 ca         1 8HD      -0.087300
     31 C51          1.5280     0.0290     0.8190 ca         1 8HD      -0.156600
     32 C52          1.1720     0.7740     1.9400 ca         1 8HD      -0.090000
     33 C53          2.1530     1.3170     2.7570 ca         1 8HD      -0.147000
     34 C54          3.4930     1.1270     2.4570 ca         1 8HD      -0.085000
     35 C55          3.8570     0.3890     1.3330 ca         1 8HD      -0.153600
     36 C56          2.8730    -0.1610     0.5230 ca         1 8HD      -0.030000
     37 C58          5.2870     0.0640     1.0360 c          1 8HD       0.688700
     38 O59          5.6080    -1.0980     0.8370 o          1 8HD      -0.579100
     39 N60          6.1790     1.0790     1.0360 n          1 8HD      -0.475800
     40 C61          5.8480     2.4910     0.9740 c3         1 8HD       0.089300
     41 C62          7.5900     0.7730     0.9320 c3         1 8HD       0.074700
     42 C63          8.1070     0.9120    -0.4600 cc         1 8HD       0.454700
     43 N64          9.1270     1.5890    -0.8580 nd         1 8HD      -0.684000
     44 C65          9.1950     1.3770    -2.2250 cd         1 8HD       0.239300
     45 C66          8.1730     0.5680    -2.5720 cc         1 8HD       0.139300
     46 O67          7.4760     0.2660    -1.4450 os         1 8HD      -0.323800
     47 C68         10.2480     1.9920    -3.0720 c3         1 8HD      -0.111400
     48 H1          -3.1320     5.4620     2.7700 h1         1 8HD       0.030200
     49 H2          -2.0830     4.1130     3.1720 h1         1 8HD       0.030200
     50 H3          -0.8520     5.8320     2.3100 ho         1 8HD       0.410000
     51 H4          -1.8250     3.9580    -0.2470 ha         1 8HD       0.143500
     52 H5          -3.0990     2.4490    -1.6890 ha         1 8HD       0.150500
     53 H6          -6.0690     2.0250     1.3890 ha         1 8HD       0.150500
     54 H7          -4.7840     3.5260     2.8230 ha         1 8HD       0.143500
     55 H8          -5.8720    -1.0350     1.4540 h1         1 8HD       0.054700
     56 H9          -7.1140    -0.0940     0.6610 h1         1 8HD       0.054700
     57 H10         -6.4560    -2.9890     0.0100 hc         1 8HD       0.041700
     58 H11         -8.8520    -1.7520     1.4400 hc         1 8HD       0.038367
     59 H12         -8.6080    -3.4640     1.1030 hc         1 8HD       0.038367
     60 H13         -7.5420    -2.6300     2.2310 hc         1 8HD       0.038367
     61 H14         -7.2870    -1.7800    -2.0050 hc         1 8HD       0.038367
     62 H15         -8.4970    -2.9050    -1.4000 hc         1 8HD       0.038367
     63 H16         -8.6630    -1.1780    -1.0800 hc         1 8HD       0.038367
     64 H17         -4.4800    -2.3070    -0.4390 h1         1 8HD       0.073200
     65 H18         -3.9380    -1.2960    -1.7470 h1         1 8HD       0.073200
     66 H19         -2.8380     0.2430    -0.0760 h1         1 8HD       0.089700
     67 H20         -3.5400    -1.7460     1.7750 ho         1 8HD       0.401000
     68 H21         -1.5650    -1.3940    -1.3050 h1         1 8HD       0.098700
     69 H22         -0.7010    -0.9340     1.4760 hn         1 8HD       0.320500
     70 H23         -2.0310    -3.2470     1.0810 hc         1 8HD       0.046700
     71 H24         -2.5950    -3.5040    -0.5610 hc         1 8HD       0.046700
     72 H26          2.4860    -4.5760     1.0970 ha         1 8HD       0.133000
     73 H27          2.9440    -5.2920    -1.2300 ha         1 8HD       0.133000
     74 H28          1.1990    -5.0110    -2.9620 ha         1 8HD       0.133000
     75 H29         -0.9750    -4.0130    -2.3770 ha         1 8HD       0.124500
     76 H30          0.1310     0.9560     2.1770 ha         1 8HD       0.138000
     77 H31          1.8710     1.8930     3.6280 ha         1 8HD       0.136000
     78 H32          4.2500     1.5470     3.1070 ha         1 8HD       0.137000
     79 H33          3.1530    -0.7430    -0.3460 ha         1 8HD       0.170000
     80 H34          6.0830     2.9950     1.9120 h1         1 8HD       0.046033
     81 H35          6.4280     2.9640     0.1800 h1         1 8HD       0.046033
     82 H36          4.7990     2.6420     0.7430 h1         1 8HD       0.046033
     83 H37          8.1530     1.4610     1.5640 h1         1 8HD       0.087700
     84 H38          7.7750    -0.2350     1.3020 h1         1 8HD       0.087700
     85 H41          7.8260     0.1500    -3.5030 h4         1 8HD       0.067100
     86 H43         11.2410     1.6630    -2.7650 hc         1 8HD       0.048700
     87 H44         10.1130     1.7240    -4.1190 hc         1 8HD       0.048700
     88 H39         10.2260     3.0800    -2.9960 hc         1 8HD       0.048700
     89 H25          0.3050    -3.5950     1.6810 ha         1 8HD       0.124500
@<TRIPOS>BOND
     1     1     2 1   
     2     1     4 ar  
     3     1     8 ar  
     4     2     3 1   
     5     2    48 1   
     6     2    49 1   
     7     3    50 1   
     8     4     5 ar  
     9     4    51 1   
    10     5     6 ar  
    11     5    52 1   
    12     6     7 ar  
    13     6     9 1   
    14     7     8 ar  
    15     7    53 1   
    16     8    54 1   
    17     9    10 2   
    18     9    11 2   
    19     9    12 1   
    20    12    13 1   
    21    12    17 1   
    22    13    14 1   
    23    13    55 1   
    24    13    56 1   
    25    14    15 1   
    26    14    16 1   
    27    14    57 1   
    28    15    58 1   
    29    15    59 1   
    30    15    60 1   
    31    16    61 1   
    32    16    62 1   
    33    16    63 1   
    34    17    18 1   
    35    17    64 1   
    36    17    65 1   
    37    18    19 1   
    38    18    20 1   
    39    18    66 1   
    40    19    67 1   
    41    20    21 1   
    42    20    24 1   
    43    20    68 1   
    44    21    22 1   
    45    21    69 1   
    46    22    23 2   
    47    22    31 1   
    48    24    30 1   
    49    24    70 1   
    50    24    71 1   
    51    25    26 ar  
    52    25    30 ar  
    53    25    89 1   
    54    26    27 ar  
    55    26    72 1   
    56    27    28 ar  
    57    27    73 1   
    58    28    29 ar  
    59    28    74 1   
    60    29    30 ar  
    61    29    75 1   
    62    31    32 ar  
    63    31    36 ar  
    64    32    33 ar  
    65    32    76 1   
    66    33    34 ar  
    67    33    77 1   
    68    34    35 ar  
    69    34    78 1   
    70    35    36 ar  
    71    35    37 1   
    72    36    79 1   
    73    37    38 2   
    74    37    39 1   
    75    39    40 1   
    76    39    41 1   
    77    40    80 1   
    78    40    81 1   
    79    40    82 1   
    80    41    42 1   
    81    41    83 1   
    82    41    84 1   
    83    42    43 2   
    84    42    46 1   
    85    43    44 1   
    86    44    45 2   
    87    44    47 1   
    88    45    46 1   
    89    45    85 1   
    90    47    86 1   
    91    47    87 1   
    92    47    88 1   
@<TRIPOS>SUBSTRUCTURE
     1 8HD         1 TEMP              0 ****  ****    0 ROOT
