@<TRIPOS>MOLECULE
8HD
   89    92     1     0     0
SMALL
No Charge or Current Charge


@<TRIPOS>ATOM
      1 C2          -4.8850     4.8420     1.1270 ca         1 8HD      -0.034300
      2 C39         -4.9590     6.0090     2.1050 c3         1 8HD       0.201900
      3 O40         -4.4970     7.2160     1.4850 oh         1 8HD      -0.655000
      4 C3          -3.7250     4.0470     1.0540 ca         1 8HD      -0.118000
      5 C4          -3.6550     2.9660     0.1580 ca         1 8HD      -0.014500
      6 C5          -4.7530     2.6680    -0.6740 ca         1 8HD      -0.292500
      7 C6          -5.9150     3.4650    -0.6080 ca         1 8HD      -0.014500
      8 C7          -5.9770     4.5440     0.2900 ca         1 8HD      -0.118000
      9 S8          -4.6710     1.2700    -1.8170 sy         1 8HD       1.186600
     10 O9          -5.7710     1.3390    -2.7840 o          1 8HD      -0.538500
     11 O10         -3.2730     1.1610    -2.2500 o          1 8HD      -0.538500
     12 N11         -4.9840    -0.0920    -0.8230 n3         1 8HD      -0.776500
     13 C12         -5.6370     0.1820     0.4830 c3         1 8HD       0.227800
     14 C13         -6.3650    -1.0260     1.1380 c3         1 8HD      -0.070700
     15 C14         -6.9560    -0.6320     2.5110 c3         1 8HD      -0.089600
     16 C15         -7.4550    -1.6250     0.2180 c3         1 8HD      -0.089600
     17 C16         -3.9680    -1.1880    -0.8570 c3         1 8HD       0.185800
     18 C17         -2.6580    -0.9740    -0.0210 c3         1 8HD       0.122300
     19 O18         -2.8980    -1.0850     1.4020 oh         1 8HD      -0.655000
     20 C19         -1.5030    -1.9360    -0.4380 c3         1 8HD       0.082700
     21 N20         -0.2810    -1.6090     0.3110 ns         1 8HD      -0.496900
     22 C21          0.9740    -1.4440    -0.2370 c          1 8HD       0.619700
     23 O22          1.1560    -1.4890    -1.4460 o          1 8HD      -0.587100
     24 C32         -1.8370    -3.4490    -0.2950 c3         1 8HD      -0.048100
     25 C33          0.1690    -4.9080     0.2890 ca         1 8HD      -0.100500
     26 C34          1.2470    -5.7280    -0.0830 ca         1 8HD      -0.104000
     27 C35          1.4880    -6.0030    -1.4400 ca         1 8HD      -0.102000
     28 C36          0.6490    -5.4540    -2.4250 ca         1 8HD      -0.104000
     29 C37         -0.4290    -4.6320    -2.0530 ca         1 8HD      -0.100500
     30 C38         -0.6760    -4.3540    -0.6940 ca         1 8HD      -0.087300
     31 C51          2.1080    -1.1980     0.7370 ca         1 8HD      -0.156600
     32 C52          1.9030    -1.1440     2.1360 ca         1 8HD      -0.072000
     33 C53          2.9870    -0.9310     3.0030 ca         1 8HD      -0.129000
     34 C54          4.2820    -0.7560     2.4930 ca         1 8HD      -0.067000
     35 C55          4.5090    -0.7800     1.1000 ca         1 8HD      -0.153600
     36 C56          3.4180    -1.0230     0.2370 ca         1 8HD      -0.012000
     37 C58          5.8920    -0.6190     0.5060 c          1 8HD       0.621700
     38 O59          6.2100    -1.2590    -0.4880 o          1 8HD      -0.579100
     39 N60          6.8400     0.2050     1.1620 n          1 8HD      -0.408800
     40 C61          6.4100     1.3910     1.9430 c3         1 8HD       0.089300
     41 C62          8.2610     0.2030     0.7070 c3         1 8HD       0.074700
     42 C63          8.4780     0.8910    -0.6250 cc         1 8HD       0.410300
     43 N64          8.2780     2.1750    -0.8980 nd         1 8HD      -0.684000
     44 C65          8.6340     2.2830    -2.2240 cd         1 8HD       0.239300
     45 C66          9.0430     1.0570    -2.6840 cc         1 8HD       0.094900
     46 O67          8.9560     0.1560    -1.6710 os         1 8HD      -0.235000
     47 C68          8.5570     3.5850    -2.9690 c3         1 8HD      -0.111400
     48 H1          -5.9970     6.1290     2.4450 h1         1 8HD       0.030200
     49 H2          -4.3500     5.7780     2.9900 h1         1 8HD       0.030200
     50 H3          -4.5700     7.9270     2.1610 ho         1 8HD       0.449000
     51 H4          -2.8730     4.2680     1.6930 ha         1 8HD       0.125500
     52 H5          -2.7500     2.3630     0.1190 ha         1 8HD       0.132500
     53 H6          -6.7720     3.2510    -1.2450 ha         1 8HD       0.132500
     54 H7          -6.8780     5.1520     0.3340 ha         1 8HD       0.125500
     55 H8          -4.9040     0.5870     1.1950 h1         1 8HD       0.054700
     56 H9          -6.4050     0.9550     0.3520 h1         1 8HD       0.054700
     57 H10         -5.6280    -1.8130     1.3330 hc         1 8HD       0.041700
     58 H11         -7.7160     0.1510     2.4000 hc         1 8HD       0.038367
     59 H12         -7.4240    -1.4980     2.9950 hc         1 8HD       0.038367
     60 H13         -6.1710    -0.2560     3.1780 hc         1 8HD       0.038367
     61 H14         -7.0230    -1.9790    -0.7260 hc         1 8HD       0.038367
     62 H15         -7.9450    -2.4780     0.7020 hc         1 8HD       0.038367
     63 H16         -8.2220    -0.8760    -0.0170 hc         1 8HD       0.038367
     64 H17         -4.4310    -2.1280    -0.5320 h1         1 8HD       0.073200
     65 H18         -3.6750    -1.3680    -1.9010 h1         1 8HD       0.073200
     66 H19         -2.2940     0.0370    -0.2380 h1         1 8HD       0.089700
     67 H20         -3.2820    -1.9710     1.5720 ho         1 8HD       0.440000
     68 H21         -1.3100    -1.7490    -1.5040 h1         1 8HD       0.098700
     69 H22         -0.3580    -1.5170     1.3140 hn         1 8HD       0.320500
     70 H23         -2.1320    -3.6620     0.7390 hc         1 8HD       0.046700
     71 H24         -2.7090    -3.6910    -0.9140 hc         1 8HD       0.046700
     72 H26          1.8970    -6.1510     0.6800 ha         1 8HD       0.115000
     73 H27          2.3230    -6.6380    -1.7280 ha         1 8HD       0.115000
     74 H28          0.8340    -5.6640    -3.4760 ha         1 8HD       0.115000
     75 H29         -1.0710    -4.2070    -2.8220 ha         1 8HD       0.106500
     76 H30          0.9170    -1.2770     2.5730 ha         1 8HD       0.120000
     77 H31          2.8230    -0.9100     4.0780 ha         1 8HD       0.118000
     78 H32          5.1080    -0.6310     3.1900 ha         1 8HD       0.119000
     79 H33          3.5940    -1.0650    -0.8370 ha         1 8HD       0.152000
     80 H34          6.4800     1.1750     3.0170 h1         1 8HD       0.046033
     81 H35          7.0570     2.2480     1.7180 h1         1 8HD       0.046033
     82 H36          5.3780     1.6680     1.6930 h1         1 8HD       0.046033
     83 H37          8.8870     0.6980     1.4600 h1         1 8HD       0.087700
     84 H38          8.6100    -0.8340     0.6290 h1         1 8HD       0.087700
     85 H41          9.3970     0.7180    -3.6470 h4         1 8HD       0.067100
     86 H43          9.2050     4.3390    -2.5080 hc         1 8HD       0.048700
     87 H44          8.8730     3.4620    -4.0120 hc         1 8HD       0.048700
     88 H39          7.5330     3.9750    -2.9720 hc         1 8HD       0.048700
     89 H25         -0.0060    -4.6970     1.3410 ha         1 8HD       0.106500
@<TRIPOS>BOND
     1     1     2 1   
     2     1     4 ar  
     3     1     8 ar  
     4     2     3 1   
     5     2    48 1   
     6     2    49 1   
     7     3    50 1   
     8     4     5 ar  
     9     4    51 1   
    10     5     6 ar  
    11     5    52 1   
    12     6     7 ar  
    13     6     9 1   
    14     7     8 ar  
    15     7    53 1   
    16     8    54 1   
    17     9    10 2   
    18     9    11 2   
    19     9    12 1   
    20    12    13 1   
    21    12    17 1   
    22    13    14 1   
    23    13    55 1   
    24    13    56 1   
    25    14    15 1   
    26    14    16 1   
    27    14    57 1   
    28    15    58 1   
    29    15    59 1   
    30    15    60 1   
    31    16    61 1   
    32    16    62 1   
    33    16    63 1   
    34    17    18 1   
    35    17    64 1   
    36    17    65 1   
    37    18    19 1   
    38    18    20 1   
    39    18    66 1   
    40    19    67 1   
    41    20    21 1   
    42    20    24 1   
    43    20    68 1   
    44    21    22 1   
    45    21    69 1   
    46    22    23 2   
    47    22    31 1   
    48    24    30 1   
    49    24    70 1   
    50    24    71 1   
    51    25    26 ar  
    52    25    30 ar  
    53    25    89 1   
    54    26    27 ar  
    55    26    72 1   
    56    27    28 ar  
    57    27    73 1   
    58    28    29 ar  
    59    28    74 1   
    60    29    30 ar  
    61    29    75 1   
    62    31    32 ar  
    63    31    36 ar  
    64    32    33 ar  
    65    32    76 1   
    66    33    34 ar  
    67    33    77 1   
    68    34    35 ar  
    69    34    78 1   
    70    35    36 ar  
    71    35    37 1   
    72    36    79 1   
    73    37    38 2   
    74    37    39 1   
    75    39    40 1   
    76    39    41 1   
    77    40    80 1   
    78    40    81 1   
    79    40    82 1   
    80    41    42 1   
    81    41    83 1   
    82    41    84 1   
    83    42    43 2   
    84    42    46 1   
    85    43    44 1   
    86    44    45 2   
    87    44    47 1   
    88    45    46 1   
    89    45    85 1   
    90    47    86 1   
    91    47    87 1   
    92    47    88 1   
@<TRIPOS>SUBSTRUCTURE
     1 8HD         1 TEMP              0 ****  ****    0 ROOT
