@<TRIPOS>MOLECULE
8HE
   28    29     1     0     0
SMALL
No Charge or Current Charge


@<TRIPOS>ATOM
      1 C1          -0.4660     0.0320    -0.0000 cp         1 8HE       0.014000
      2 C2           0.2700    -1.1500     0.2660 ca         1 8HE      -0.121000
      3 C3           1.6750    -1.1520     0.2620 ca         1 8HE      -0.009000
      4 C5          -2.6960     1.1530     0.4690 ca         1 8HE      -0.099000
      5 C6          -4.1020     1.1530     0.4760 ca         1 8HE      -0.072500
      6 C7          -4.8120     0.0280     0.0170 ca         1 8HE      -0.009000
      7 C8          -4.1040    -1.0960    -0.4470 ca         1 8HE      -0.072500
      8 C9          -2.6980    -1.0930    -0.4520 ca         1 8HE      -0.099000
      9 C10          2.3820     0.0360    -0.0100 ca         1 8HE      -0.265500
     10 C11          1.6710     1.2210    -0.2820 ca         1 8HE      -0.009000
     11 C12          0.2650     1.2150    -0.2740 ca         1 8HE      -0.121000
     12 S1           4.1780     0.0380    -0.0170 sy         1 8HE       1.125600
     13 O1           4.7010     1.3910     0.1560 o          1 8HE      -0.542500
     14 O2           4.7060    -1.1030     0.7280 o          1 8HE      -0.542500
     15 N3           4.5420    -0.3170    -1.5670 n8         1 8HE      -1.004100
     16 C4          -1.9640     0.0310     0.0060 cp         1 8HE      -0.027000
     17 N7          -7.4170     0.0160     0.0270 n1         1 8HE      -0.444000
     18 H1          -0.2530    -2.0750     0.4940 ha         1 8HE       0.122500
     19 H2           2.2090    -2.0780     0.4730 ha         1 8HE       0.139000
     20 H3          -2.1710     2.0290     0.8410 ha         1 8HE       0.124000
     21 H4          -4.6380     2.0270     0.8410 ha         1 8HE       0.129500
     22 H5          -4.6410    -1.9710    -0.8080 ha         1 8HE       0.129500
     23 H6          -2.1740    -1.9680    -0.8290 ha         1 8HE       0.124000
     24 H7           2.2000     2.1470    -0.5020 ha         1 8HE       0.139000
     25 H8          -0.2620     2.1390    -0.4990 ha         1 8HE       0.122500
     26 H9           5.1820    -1.0960    -1.4310 hn         1 8HE       0.474000
     27 H10          5.1790     0.4460    -1.7850 hn         1 8HE       0.474000
     28 C81         -6.2500     0.0260     0.0230 cg         1 8HE       0.320000
@<TRIPOS>BOND
     1     1     2 ar  
     2     1    11 ar  
     3     1    16 1   
     4     2     3 ar  
     5     2    18 1   
     6     3     9 ar  
     7     3    19 1   
     8     4     5 ar  
     9     4    16 ar  
    10     4    20 1   
    11     5     6 ar  
    12     5    21 1   
    13     6     7 ar  
    14     6    28 1   
    15     7     8 ar  
    16     7    22 1   
    17     8    16 ar  
    18     8    23 1   
    19     9    10 ar  
    20     9    12 1   
    21    10    11 ar  
    22    10    24 1   
    23    11    25 1   
    24    12    13 2   
    25    12    14 2   
    26    12    15 1   
    27    15    26 1   
    28    15    27 1   
    29    17    28 3   
@<TRIPOS>SUBSTRUCTURE
     1 8HE         1 TEMP              0 ****  ****    0 ROOT
