@<TRIPOS>MOLECULE
8HE
   28    29     1     0     0
SMALL
bcc


@<TRIPOS>ATOM
      1 C1          -0.4360     0.0160    -0.0010 cp         1 8HE       0.014000
      2 C2           0.2720    -1.1350     0.3390 ca         1 8HE      -0.139000
      3 C3           1.6580    -1.1370     0.3560 ca         1 8HE      -0.027000
      4 C5          -2.6190     1.1310     0.4500 ca         1 8HE      -0.117000
      5 C6          -4.0010     1.1380     0.4570 ca         1 8HE      -0.090500
      6 C7          -4.6970     0.0180     0.0020 ca         1 8HE      -0.009000
      7 C8          -4.0040    -1.1020    -0.4550 ca         1 8HE      -0.090500
      8 C9          -2.6220    -1.0970    -0.4520 ca         1 8HE      -0.117000
      9 C10          2.3380     0.0220     0.0190 ca         1 8HE      -0.265500
     10 C11          1.6560     1.1810    -0.3290 ca         1 8HE      -0.027000
     11 C12          0.2730     1.1720    -0.3340 ca         1 8HE      -0.139000
     12 S1           4.1080     0.0500     0.0510 sy         1 8HE       1.267200
     13 O1           4.5590     1.3610     0.4950 o          1 8HE      -0.613300
     14 O2           4.5580    -1.1250     0.7840 o          1 8HE      -0.613300
     15 N3           4.4570    -0.0250    -1.5610 n8         1 8HE      -0.893700
     16 C4          -1.9110     0.0170    -0.0020 cp         1 8HE      -0.027000
     17 N7          -7.2760     0.0200     0.0090 n1         1 8HE      -0.354800
     18 H1          -0.2560    -2.0370     0.6210 ha         1 8HE       0.140500
     19 H2           2.1890    -2.0350     0.6410 ha         1 8HE       0.157000
     20 H3          -2.0890     1.9980     0.8230 ha         1 8HE       0.142000
     21 H4          -4.5380     2.0030     0.8190 ha         1 8HE       0.147500
     22 H5          -4.5420    -1.9680    -0.8160 ha         1 8HE       0.147500
     23 H6          -2.0930    -1.9640    -0.8260 ha         1 8HE       0.142000
     24 H7           2.1870     2.0830    -0.5980 ha         1 8HE       0.157000
     25 H8          -0.2550     2.0720    -0.6200 ha         1 8HE       0.140500
     26 H9           4.3220    -0.9530    -1.9490 hn         1 8HE       0.418800
     27 H10          5.4000     0.3030    -1.7520 hn         1 8HE       0.418800
     28 C81         -6.1240     0.0190     0.0050 cg         1 8HE       0.230800
@<TRIPOS>BOND
     1     1     2 ar  
     2     1    11 ar  
     3     1    16 1   
     4     2     3 ar  
     5     2    18 1   
     6     3     9 ar  
     7     3    19 1   
     8     4     5 ar  
     9     4    16 ar  
    10     4    20 1   
    11     5     6 ar  
    12     5    21 1   
    13     6     7 ar  
    14     6    28 1   
    15     7     8 ar  
    16     7    22 1   
    17     8    16 ar  
    18     8    23 1   
    19     9    10 ar  
    20     9    12 1   
    21    10    11 ar  
    22    10    24 1   
    23    11    25 1   
    24    12    13 2   
    25    12    14 2   
    26    12    15 1   
    27    15    26 1   
    28    15    27 1   
    29    17    28 3   
@<TRIPOS>SUBSTRUCTURE
     1 8HE         1 TEMP              0 ****  ****    0 ROOT
