@<TRIPOS>MOLECULE
8HF
   68    71     1     0     0
SMALL
No Charge or Current Charge


@<TRIPOS>ATOM
      1 CAA         -0.1340    -3.7010    -1.2990 ca         1 8HF      -0.087000
      2 CAB          1.0930    -3.5080    -0.6460 ca         1 8HF      -0.073000
      3 CAC          1.2690    -2.4320     0.2460 ca         1 8HF      -0.129600
      4 CAD          0.1710    -1.5800     0.5040 ca         1 8HF      -0.058000
      5 CAE         -1.0670    -1.7580    -0.1400 ca         1 8HF       0.276000
      6 CAF         -1.2170    -2.8280    -1.0550 ca         1 8HF      -0.071000
      7 CAH         -3.2820    -1.0560    -0.4680 cp         1 8HF       0.439500
      8 CAI         -3.4970    -2.0930    -1.4000 ca         1 8HF      -0.147000
      9 CAJ         -2.4630    -2.9880    -1.6960 ca         1 8HF       0.159000
     10 CAK         -4.3520    -0.0590    -0.1030 cp         1 8HF      -0.159500
     11 CAL         -4.0260     1.2180     0.4260 ca         1 8HF      -0.082000
     12 CAM         -5.0200     2.1520     0.7650 ca         1 8HF      -0.103500
     13 CAN         -6.3900     1.8480     0.5940 ca         1 8HF      -0.054300
     14 CAO         -6.7250     0.5790     0.0760 ca         1 8HF      -0.103500
     15 CAP         -5.7310    -0.3540    -0.2640 ca         1 8HF      -0.082000
     16 CAQ         -7.5100     2.8520     0.9580 c3         1 8HF       0.229300
     17 CAR         -8.3510     3.2060    -0.2900 c3         1 8HF      -0.118600
     18 CAS         -8.4090     2.2780     2.0780 c3         1 8HF      -0.118600
     19 CAV          2.5940    -2.2610     0.9570 c          1 8HF       0.617700
     20 CAY          4.1430    -0.7320     2.2560 c6         1 8HF       0.082000
     21 CAZ          5.4430    -0.2870     1.5310 c6         1 8HF       0.095700
     22 CBB          3.9860     0.7880    -0.2350 c6         1 8HF       0.086000
     23 CBC          2.7300     0.2450     0.4950 c6         1 8HF       0.087000
     24 CBD          6.2490     1.7940     0.3680 c          1 8HF       0.646100
     25 CBE          6.0810    -1.4770     0.7630 c3         1 8HF      -0.110100
     26 CBH          6.9060     3.6690    -0.9860 c3         1 8HF       0.183600
     27 CBI          6.3050     4.5190    -2.1220 c3         1 8HF      -0.085400
     28 CBJ          7.2520     5.6340    -2.6070 c3         1 8HF      -0.090100
     29 NAG         -2.0800    -0.9050     0.1330 nb         1 8HF      -0.666000
     30 NAW          3.0120    -0.9580     1.3210 n          1 8HF      -0.403800
     31 NBA          5.2130     0.8720     0.6200 n          1 8HF      -0.402800
     32 OAT         -6.9670     4.0800     1.4520 oh         1 8HF      -0.659000
     33 OAX          3.2440    -3.2430     1.2910 o          1 8HF      -0.585100
     34 OBF          5.9320     2.6750    -0.6300 os         1 8HF      -0.465100
     35 OBG          7.3100     1.8010     0.9770 o          1 8HF      -0.542000
     36 H1          -0.2290    -4.5350    -1.9900 ha         1 8HF       0.131000
     37 H2           1.9150    -4.1940    -0.8430 ha         1 8HF       0.131000
     38 H3           0.2640    -0.7740     1.2260 ha         1 8HF       0.140000
     39 H4          -4.4510    -2.1980    -1.9020 ha         1 8HF       0.141000
     40 Cl1         -2.7680    -4.2750    -2.8650 cl         1 8HF      -0.182000
     41 H6          -2.9840     1.4990     0.5690 ha         1 8HF       0.121500
     42 H7          -4.7080     3.1140     1.1620 ha         1 8HF       0.123500
     43 H8          -7.7680     0.3030    -0.0630 ha         1 8HF       0.123500
     44 H9          -6.0470    -1.3230    -0.6420 ha         1 8HF       0.121500
     45 H10         -8.8640     2.3220    -0.6870 hc         1 8HF       0.043700
     46 H11         -9.1160     3.9560    -0.0530 hc         1 8HF       0.043700
     47 H12         -7.7110     3.6100    -1.0840 hc         1 8HF       0.043700
     48 H13         -7.8100     2.0290     2.9630 hc         1 8HF       0.043700
     49 H14         -9.1780     3.0000     2.3780 hc         1 8HF       0.043700
     50 H15         -8.9190     1.3660     1.7480 hc         1 8HF       0.043700
     51 H16          4.3390    -1.6320     2.8570 h1         1 8HF       0.071200
     52 H17          3.8520     0.0570     2.9640 h1         1 8HF       0.071200
     53 H18          6.1570     0.0110     2.3130 h1         1 8HF       0.089700
     54 H19          4.2080     0.1320    -1.0880 h1         1 8HF       0.059200
     55 H20          3.7310     1.7740    -0.6460 h1         1 8HF       0.059200
     56 H21          2.3340     1.0330     1.1520 h1         1 8HF       0.063700
     57 H22          1.9650     0.0410    -0.2640 h1         1 8HF       0.063700
     58 H23          7.0390    -1.1860     0.3160 hc         1 8HF       0.046033
     59 H24          6.2740    -2.3230     1.4320 hc         1 8HF       0.046033
     60 H25          5.4330    -1.8310    -0.0470 hc         1 8HF       0.046033
     61 H26          7.8360     3.1970    -1.3320 h1         1 8HF       0.050200
     62 H27          7.1390     4.3130    -0.1280 h1         1 8HF       0.050200
     63 H28          6.0570     3.8670    -2.9680 hc         1 8HF       0.051200
     64 H29          5.3670     4.9710    -1.7760 hc         1 8HF       0.051200
     65 H30          7.4930     6.3230    -1.7880 hc         1 8HF       0.037367
     66 H31          8.1890     5.2090    -2.9900 hc         1 8HF       0.037367
     67 H32          6.7830     6.2110    -3.4130 hc         1 8HF       0.037367
     68 H33         -7.7290     4.6610     1.6610 ho         1 8HF       0.446000
@<TRIPOS>BOND
     1     1     2 ar  
     2     1     6 ar  
     3     1    36 1   
     4     2     3 ar  
     5     2    37 1   
     6     3     4 ar  
     7     3    19 1   
     8     4     5 ar  
     9     4    38 1   
    10     5     6 ar  
    11     5    29 ar  
    12     6     9 ar  
    13     7     8 ar  
    14     7    10 1   
    15     7    29 ar  
    16     8     9 ar  
    17     8    39 1   
    18     9    40 1   
    19    10    11 ar  
    20    10    15 ar  
    21    11    12 ar  
    22    11    41 1   
    23    12    13 ar  
    24    12    42 1   
    25    13    14 ar  
    26    13    16 1   
    27    14    15 ar  
    28    14    43 1   
    29    15    44 1   
    30    16    17 1   
    31    16    18 1   
    32    16    32 1   
    33    17    45 1   
    34    17    46 1   
    35    17    47 1   
    36    18    48 1   
    37    18    49 1   
    38    18    50 1   
    39    19    30 1   
    40    19    33 2   
    41    20    21 1   
    42    20    30 1   
    43    20    51 1   
    44    20    52 1   
    45    21    25 1   
    46    21    31 1   
    47    21    53 1   
    48    22    23 1   
    49    22    31 1   
    50    22    54 1   
    51    22    55 1   
    52    23    30 1   
    53    23    56 1   
    54    23    57 1   
    55    24    31 1   
    56    24    34 1   
    57    24    35 2   
    58    25    58 1   
    59    25    59 1   
    60    25    60 1   
    61    26    27 1   
    62    26    34 1   
    63    26    61 1   
    64    26    62 1   
    65    27    28 1   
    66    27    63 1   
    67    27    64 1   
    68    28    65 1   
    69    28    66 1   
    70    28    67 1   
    71    32    68 1   
@<TRIPOS>SUBSTRUCTURE
     1 8HF         1 TEMP              0 ****  ****    0 ROOT
