@<TRIPOS>MOLECULE
8HF
   68    71     1     0     0
SMALL
abcg2


@<TRIPOS>ATOM
      1 CAA          0.0170    -3.1370    -1.4200 ca         1 8HF      -0.087000
      2 CAB          1.1430    -2.9500    -0.6690 ca         1 8HF      -0.073000
      3 CAC          1.1840    -1.9460     0.3230 ca         1 8HF      -0.129600
      4 CAD          0.0790    -1.1760     0.5660 ca         1 8HF      -0.058000
      5 CAE         -1.1120    -1.3710    -0.1680 ca         1 8HF       0.276000
      6 CAF         -1.1360    -2.3600    -1.1840 ca         1 8HF      -0.071000
      7 CAH         -3.3000    -0.7660    -0.5110 cp         1 8HF       0.439500
      8 CAI         -3.4270    -1.7040    -1.5680 ca         1 8HF      -0.147000
      9 CAJ         -2.3580    -2.4830    -1.8880 ca         1 8HF       0.159000
     10 CAK         -4.4450     0.0770    -0.1160 cp         1 8HF      -0.159500
     11 CAL         -4.2350     1.2760     0.5620 ca         1 8HF      -0.082000
     12 CAM         -5.2990     2.0730     0.9560 ca         1 8HF      -0.103500
     13 CAN         -6.6130     1.6920     0.6950 ca         1 8HF      -0.054300
     14 CAO         -6.8210     0.4900     0.0190 ca         1 8HF      -0.103500
     15 CAP         -5.7610    -0.3030    -0.3820 ca         1 8HF      -0.082000
     16 CAQ         -7.8030     2.5260     1.1330 c3         1 8HF       0.229300
     17 CAR         -8.6750     2.8800    -0.0750 c3         1 8HF      -0.118600
     18 CAS         -8.6200     1.7460     2.1680 c3         1 8HF      -0.118600
     19 CAV          2.3980    -1.8430     1.1940 c          1 8HF       0.617700
     20 CAY          4.0750    -0.4190     2.2390 c6         1 8HF       0.082000
     21 CAZ          5.4090    -0.2270     1.5260 c6         1 8HF       0.095700
     22 CBB          4.1400     0.6900    -0.3880 c6         1 8HF       0.086000
     23 CBC          2.8430     0.4660     0.3750 c6         1 8HF       0.087000
     24 CBD          6.3090     1.6600     0.3040 c          1 8HF       0.646100
     25 CBE          5.9510    -1.5160     0.9200 c3         1 8HF      -0.110100
     26 CBH          7.1370     3.4030    -1.0630 c3         1 8HF       0.183600
     27 CBI          6.7520     4.0930    -2.3540 c3         1 8HF      -0.085400
     28 CBJ          7.7930     5.1340    -2.7420 c3         1 8HF      -0.090100
     29 NAG         -2.1780    -0.6070     0.1460 nb         1 8HF      -0.666000
     30 NAW          2.9880    -0.6360     1.3050 n          1 8HF      -0.403800
     31 NBA          5.2640     0.8270     0.5240 n          1 8HF      -0.402800
     32 OAT         -7.2920     3.7080     1.7160 oh         1 8HF      -0.659000
     33 OAX          2.7740    -2.8370     1.7980 o          1 8HF      -0.585100
     34 OBF          6.1180     2.4480    -0.7520 os         1 8HF      -0.465100
     35 OBG          7.3090     1.7010     0.9940 o          1 8HF      -0.542000
     36 H1           0.0090    -3.8950    -2.1910 ha         1 8HF       0.131000
     37 H2           2.0140    -3.5660    -0.8480 ha         1 8HF       0.131000
     38 H3           0.0800    -0.4110     1.3330 ha         1 8HF       0.140000
     39 H4          -4.3490    -1.7890    -2.1240 ha         1 8HF       0.141000
     40 CL1         -2.4960    -3.6250    -3.1710 cl         1 8HF      -0.182000
     41 H6          -3.2250     1.5960     0.7790 ha         1 8HF       0.121500
     42 H7          -5.0880     2.9980     1.4720 ha         1 8HF       0.123500
     43 H8          -7.8270     0.1540    -0.1990 ha         1 8HF       0.123500
     44 H9          -5.9780    -1.2370    -0.8840 ha         1 8HF       0.121500
     45 H10         -9.0820     1.9910    -0.5550 hc         1 8HF       0.043700
     46 H11         -9.5220     3.4960     0.2370 hc         1 8HF       0.043700
     47 H12         -8.1030     3.4350    -0.8190 hc         1 8HF       0.043700
     48 H13         -8.0190     1.5210     3.0500 hc         1 8HF       0.043700
     49 H14         -9.4890     2.3280     2.4850 hc         1 8HF       0.043700
     50 H15         -8.9900     0.8040     1.7630 hc         1 8HF       0.043700
     51 H16          4.1430    -1.2510     2.9350 h1         1 8HF       0.071200
     52 H17          3.8460     0.4820     2.8180 h1         1 8HF       0.071200
     53 H18          6.1110     0.1260     2.2800 h1         1 8HF       0.089700
     54 H19          4.3000    -0.1460    -1.0770 h1         1 8HF       0.059200
     55 H20          4.0310     1.5880    -0.9890 h1         1 8HF       0.059200
     56 H21          2.5770     1.3710     0.9300 h1         1 8HF       0.063700
     57 H22          2.0490     0.2750    -0.3420 h1         1 8HF       0.063700
     58 H23          6.9290    -1.3450     0.4710 hc         1 8HF       0.046033
     59 H24          6.0690    -2.2760     1.6930 hc         1 8HF       0.046033
     60 H25          5.2950    -1.9260     0.1520 hc         1 8HF       0.046033
     61 H26          8.1020     2.9020    -1.1730 h1         1 8HF       0.050200
     62 H27          7.2270     4.1300    -0.2510 h1         1 8HF       0.050200
     63 H28          6.6550     3.3520    -3.1500 hc         1 8HF       0.051200
     64 H29          5.7760     4.5710    -2.2410 hc         1 8HF       0.051200
     65 H30          7.8840     5.9120    -1.9820 hc         1 8HF       0.037367
     66 H31          8.7780     4.6820    -2.8720 hc         1 8HF       0.037367
     67 H32          7.5270     5.6190    -3.6800 hc         1 8HF       0.037367
     68 H33         -8.0370     4.2430     2.0100 ho         1 8HF       0.446000
@<TRIPOS>BOND
     1     1     2 ar  
     2     1     6 ar  
     3     1    36 1   
     4     2     3 ar  
     5     2    37 1   
     6     3     4 ar  
     7     3    19 1   
     8     4     5 ar  
     9     4    38 1   
    10     5     6 ar  
    11     5    29 ar  
    12     6     9 ar  
    13     7     8 ar  
    14     7    10 1   
    15     7    29 ar  
    16     8     9 ar  
    17     8    39 1   
    18     9    40 1   
    19    10    11 ar  
    20    10    15 ar  
    21    11    12 ar  
    22    11    41 1   
    23    12    13 ar  
    24    12    42 1   
    25    13    14 ar  
    26    13    16 1   
    27    14    15 ar  
    28    14    43 1   
    29    15    44 1   
    30    16    17 1   
    31    16    18 1   
    32    16    32 1   
    33    17    45 1   
    34    17    46 1   
    35    17    47 1   
    36    18    48 1   
    37    18    49 1   
    38    18    50 1   
    39    19    30 1   
    40    19    33 2   
    41    20    21 1   
    42    20    30 1   
    43    20    51 1   
    44    20    52 1   
    45    21    25 1   
    46    21    31 1   
    47    21    53 1   
    48    22    23 1   
    49    22    31 1   
    50    22    54 1   
    51    22    55 1   
    52    23    30 1   
    53    23    56 1   
    54    23    57 1   
    55    24    31 1   
    56    24    34 1   
    57    24    35 2   
    58    25    58 1   
    59    25    59 1   
    60    25    60 1   
    61    26    27 1   
    62    26    34 1   
    63    26    61 1   
    64    26    62 1   
    65    27    28 1   
    66    27    63 1   
    67    27    64 1   
    68    28    65 1   
    69    28    66 1   
    70    28    67 1   
    71    32    68 1   
@<TRIPOS>SUBSTRUCTURE
     1 8HF         1 TEMP              0 ****  ****    0 ROOT
