@<TRIPOS>MOLECULE
8HG
   33    35     1     0     0
SMALL
No Charge or Current Charge


@<TRIPOS>ATOM
      1 O6           4.3240    -1.7930    -0.1360 o          1 8HG      -0.545000
      2 C6           3.5970    -0.8150    -0.0600 c          1 8HG       0.615200
      3 N1           4.0490     0.4560    -0.0140 ns         1 8HG      -0.443400
      4 C2           3.2340     1.5310     0.0770 cc         1 8HG       0.735800
      5 N2           3.8310     2.7070     0.1120 nv         1 8HG      -1.043200
      6 N3           1.9210     1.5490     0.1360 nd         1 8HG      -0.706300
      7 C4           1.3540     0.2810     0.0890 cd         1 8HG       0.306200
      8 C5           2.1400    -0.8270    -0.0020 cc         1 8HG      -0.251600
      9 N7           1.2940    -1.9280    -0.0200 ns         1 8HG      -0.470600
     10 C8          -0.0160    -1.5480     0.0590 c          1 8HG       0.591000
     11 O20         -0.9860    -2.2880     0.0470 o          1 8HG      -0.578000
     12 N9           0.0430    -0.1440     0.1230 n          1 8HG      -0.298000
     13 C1          -1.1060     0.7630     0.2760 c5         1 8HG       0.356700
     14 O4          -2.1880     0.1550     1.0130 os         1 8HG      -0.438000
     15 C7          -1.6460     1.0670    -1.1580 c5         1 8HG      -0.152400
     16 C3          -2.9760     0.2710    -1.1810 c5         1 8HG       0.133300
     17 O3          -3.9070     0.8200    -2.1210 oh         1 8HG      -0.711000
     18 C9          -3.4100     0.4520     0.3030 c5         1 8HG       0.171300
     19 C10         -4.5610    -0.4860     0.7640 c3         1 8HG       0.160600
     20 O5          -5.0160    -0.1550     2.0930 oh         1 8HG      -0.710000
     21 HN1          5.0460     0.5860    -0.0220 hn         1 8HG       0.327500
     22 HN21         4.6960     2.7900    -0.4080 hn         1 8HG       0.505000
     23 HN22         3.1930     3.4850     0.0030 hn         1 8HG       0.505000
     24 H1          -0.7470     1.6720     0.7770 h2         1 8HG       0.093700
     25 H2'1        -1.8190     2.1430    -1.2710 hc         1 8HG       0.070200
     26 H2'2        -0.9610     0.7660    -1.9590 hc         1 8HG       0.070200
     27 H3          -2.7920    -0.7940    -1.3900 h1         1 8HG       0.072700
     28 H6          -3.5260     0.6840    -3.0210 ho         1 8HG       0.509000
     29 H4          -3.6970     1.4940     0.5000 h1         1 8HG       0.073700
     30 H5'1        -5.3910    -0.3920     0.0520 h1         1 8HG       0.035200
     31 H5'2        -4.2080    -1.5260     0.7230 h1         1 8HG       0.035200
     32 H5          -5.6980    -0.8230     2.3380 ho         1 8HG       0.502000
     33 H13          1.5610    -2.9090    -0.0830 hn         1 8HG       0.478000
@<TRIPOS>BOND
     1     1     2 2   
     2     2     3 1   
     3     2     8 1   
     4     3     4 1   
     5     3    21 1   
     6     4     5 1   
     7     4     6 2   
     8     5    22 1   
     9     5    23 1   
    10     6     7 1   
    11     7     8 2   
    12     7    12 1   
    13     8     9 1   
    14     9    10 1   
    15     9    33 1   
    16    10    11 2   
    17    10    12 1   
    18    12    13 1   
    19    13    14 1   
    20    13    15 1   
    21    13    24 1   
    22    14    18 1   
    23    15    16 1   
    24    15    25 1   
    25    15    26 1   
    26    16    17 1   
    27    16    18 1   
    28    16    27 1   
    29    17    28 1   
    30    18    19 1   
    31    18    29 1   
    32    19    20 1   
    33    19    30 1   
    34    19    31 1   
    35    20    32 1   
@<TRIPOS>SUBSTRUCTURE
     1 8HG         1 TEMP              0 ****  ****    0 ROOT
