@<TRIPOS>MOLECULE
8HG
   33    35     1     0     0
SMALL
bcc


@<TRIPOS>ATOM
      1 O6           4.2170    -1.8570     0.3160 o          1 8HG      -0.620500
      2 C6           3.4420    -0.9120     0.2550 c          1 8HG       0.757700
      3 N1           3.8880     0.4020     0.4600 ns         1 8HG      -0.510400
      4 C2           3.1150     1.5200     0.4120 cc         1 8HG       0.735800
      5 N2           3.7100     2.6920     0.6650 nv         1 8HG      -0.932800
      6 N3           1.8260     1.4820     0.1610 nd         1 8HG      -0.706300
      7 C4           1.3500     0.2520    -0.0390 cd         1 8HG       0.306200
      8 C5           2.0570    -0.9210    -0.0070 cc         1 8HG      -0.251600
      9 N7           1.1620    -1.9470    -0.2710 ns         1 8HG      -0.424100
     10 C8          -0.0840    -1.4430    -0.4660 c          1 8HG       0.800500
     11 O20         -1.1100    -2.0520    -0.7120 o          1 8HG      -0.653500
     12 N9           0.0460    -0.0600    -0.3300 n          1 8HG      -0.365000
     13 C1          -1.0370     0.8940    -0.4010 c5         1 8HG       0.333500
     14 O4          -1.9220     0.6700     0.6680 os         1 8HG      -0.391600
     15 C7          -1.8650     0.8510    -1.6880 c5         1 8HG      -0.152400
     16 C3          -3.2040     0.2470    -1.2680 c5         1 8HG       0.110100
     17 O3          -4.3260     0.7940    -1.9120 oh         1 8HG      -0.588800
     18 C9          -3.2660     0.5920     0.2200 c5         1 8HG       0.148100
     19 C10         -4.0210    -0.4350     1.0270 c3         1 8HG       0.137400
     20 O5          -4.1300     0.0060     2.3600 oh         1 8HG      -0.587800
     21 HN1          4.8760     0.5030     0.6520 hn         1 8HG       0.327500
     22 HN21         4.7120     2.7780     0.6630 hn         1 8HG       0.449800
     23 HN22         3.1850     3.5330     0.4910 hn         1 8HG       0.449800
     24 H1          -0.5550     1.8680    -0.2910 h2         1 8HG       0.093700
     25 H2'1        -2.0280     1.8730    -2.0340 hc         1 8HG       0.070200
     26 H2'2        -1.3710     0.3040    -2.4900 hc         1 8HG       0.070200
     27 H3          -3.1710    -0.8390    -1.3920 h1         1 8HG       0.072700
     28 H6          -4.3690     0.4310    -2.8020 ho         1 8HG       0.410000
     29 H4          -3.7510     1.5730     0.3310 h1         1 8HG       0.073700
     30 H5'1        -5.0060    -0.5670     0.5590 h1         1 8HG       0.035200
     31 H5'2        -3.4960    -1.3970     0.9550 h1         1 8HG       0.035200
     32 H5          -4.6170    -0.6590     2.8550 ho         1 8HG       0.403000
     33 H13          1.3770    -2.9300    -0.3100 hn         1 8HG       0.364500
@<TRIPOS>BOND
     1     1     2 2   
     2     2     3 1   
     3     2     8 1   
     4     3     4 1   
     5     3    21 1   
     6     4     5 1   
     7     4     6 2   
     8     5    22 1   
     9     5    23 1   
    10     6     7 1   
    11     7     8 2   
    12     7    12 1   
    13     8     9 1   
    14     9    10 1   
    15     9    33 1   
    16    10    11 2   
    17    10    12 1   
    18    12    13 1   
    19    13    14 1   
    20    13    15 1   
    21    13    24 1   
    22    14    18 1   
    23    15    16 1   
    24    15    25 1   
    25    15    26 1   
    26    16    17 1   
    27    16    18 1   
    28    16    27 1   
    29    17    28 1   
    30    18    19 1   
    31    18    29 1   
    32    19    20 1   
    33    19    30 1   
    34    19    31 1   
    35    20    32 1   
@<TRIPOS>SUBSTRUCTURE
     1 8HG         1 TEMP              0 ****  ****    0 ROOT
