@<TRIPOS>MOLECULE
8HH
   31    33     1     0     0
SMALL
No Charge or Current Charge


@<TRIPOS>ATOM
      1 C1          -2.1840    -3.0530    -0.1520 c3         1 8HH       0.232800
      2 C2          -1.4990    -0.5990    -0.0150 cc         1 8HH       0.411000
      3 C3          -0.1280    -0.7760    -0.0230 cd         1 8HH      -0.341000
      4 C7          -1.7010     2.9220     0.1700 cc         1 8HH      -0.406600
      5 C8           2.2430     0.1720     0.0330 ca         1 8HH      -0.205500
      6 C9           3.1030     1.1980    -0.4190 ca         1 8HH      -0.030000
      7 C10          4.4890     0.9850    -0.3620 ca         1 8HH      -0.173000
      8 C11          4.9770    -0.2240     0.1550 ca         1 8HH       0.344900
      9 C12          2.8280    -0.9970     0.5570 ca         1 8HH       0.354900
     10 C           -3.5140    -3.8190    -0.1900 c3         1 8HH      -0.112100
     11 N           -2.4350    -1.6080    -0.0780 nu         1 8HH      -0.960200
     12 N2          -1.9150     0.7370     0.0600 na         1 8HH       0.063900
     13 N3          -3.2370     1.2270     0.0850 nd         1 8HH      -0.622100
     14 C6          -3.0480     2.5370     0.1520 cc         1 8HH       0.404500
     15 C5          -0.9910     1.7800     0.1120 cd         1 8HH       0.430500
     16 N1           0.3070     1.5700     0.1020 nc         1 8HH      -0.703000
     17 C4           0.7800     0.3370     0.0460 cd         1 8HH       0.496500
     18 N4           4.1650    -1.2020     0.6150 nb         1 8HH      -0.673000
     19 H1          -1.6020    -3.3810     0.7200 h1         1 8HH       0.049200
     20 H2          -1.6040    -3.2900    -1.0560 h1         1 8HH       0.049200
     21 H3           0.2670    -1.7780    -0.0970 ha         1 8HH       0.137000
     22 H4          -1.3240     3.9350     0.2220 ha         1 8HH       0.227000
     23 H5           2.7120     2.1340    -0.8150 ha         1 8HH       0.141000
     24 H6           5.1820     1.7460    -0.7110 ha         1 8HH       0.126000
     25 H7           6.0480    -0.4140     0.2110 h4         1 8HH       0.019100
     26 H8           2.2160    -1.8010     0.9620 h4         1 8HH       0.018100
     27 H9          -4.1060    -3.5300    -1.0660 hc         1 8HH       0.050033
     28 H10         -3.3260    -4.8980    -0.2450 hc         1 8HH       0.050033
     29 H11         -4.1030    -3.6210     0.7140 hc         1 8HH       0.050033
     30 H12         -3.4020    -1.2730    -0.0590 hn         1 8HH       0.529000
     31 H13         -3.9120     3.1870     0.1860 h4         1 8HH       0.043800
@<TRIPOS>BOND
     1     1    10 1   
     2     1    11 1   
     3     1    19 1   
     4     1    20 1   
     5     2     3 2   
     6     2    11 1   
     7     2    12 1   
     8     3    17 1   
     9     3    21 1   
    10     4    14 1   
    11     4    15 2   
    12     4    22 1   
    13     5     6 ar  
    14     5     9 ar  
    15     5    17 1   
    16     6     7 ar  
    17     6    23 1   
    18     7     8 ar  
    19     7    24 1   
    20     8    18 ar  
    21     8    25 1   
    22     9    18 ar  
    23     9    26 1   
    24    10    27 1   
    25    10    28 1   
    26    10    29 1   
    27    11    30 1   
    28    12    13 1   
    29    12    15 1   
    30    13    14 2   
    31    14    31 1   
    32    15    16 1   
    33    16    17 2   
@<TRIPOS>SUBSTRUCTURE
     1 8HH         1 TEMP              0 ****  ****    0 ROOT
