@<TRIPOS>MOLECULE
8HH
   31    33     1     0     0
SMALL
abcg2


@<TRIPOS>ATOM
      1 C1          -2.1350    -2.9300    -0.0630 c3         1 8HH       0.232800
      2 C2          -1.4800    -0.5760     0.0330 cc         1 8HH       0.411000
      3 C3          -0.1080    -0.7800     0.0300 cd         1 8HH      -0.341000
      4 C7          -1.7790     2.9170     0.1460 cc         1 8HH      -0.406600
      5 C8           2.2160     0.1350     0.0700 ca         1 8HH      -0.205500
      6 C9           3.0660     1.1370    -0.3930 ca         1 8HH      -0.030000
      7 C10          4.4320     0.9210    -0.3870 ca         1 8HH      -0.173000
      8 C11          4.9100    -0.2910     0.0910 ca         1 8HH       0.344900
      9 C12          2.8070    -1.0370     0.5370 ca         1 8HH       0.354900
     10 C           -3.4130    -3.7190    -0.2670 c3         1 8HH      -0.112100
     11 N           -2.4220    -1.5100    -0.0210 nu         1 8HH      -0.960200
     12 N2          -1.8820     0.7240     0.0840 na         1 8HH       0.063900
     13 N3          -3.1610     1.1150     0.0950 nd         1 8HH      -0.622100
     14 C6          -3.0910     2.4370     0.1320 cc         1 8HH       0.404500
     15 C5          -0.9880     1.7760     0.1130 cd         1 8HH       0.430500
     16 N1           0.3350     1.5820     0.1110 nc         1 8HH      -0.703000
     17 C4           0.7510     0.3310     0.0750 cd         1 8HH       0.496500
     18 N4           4.1160    -1.2510     0.5510 nb         1 8HH      -0.673000
     19 H1          -1.6470    -3.2400     0.8650 h1         1 8HH       0.049200
     20 H2          -1.4370    -3.1340    -0.8780 h1         1 8HH       0.049200
     21 H3           0.2790    -1.7850    -0.0340 ha         1 8HH       0.137000
     22 H4          -1.4450     3.9390     0.1750 ha         1 8HH       0.227000
     23 H5           2.6580     2.0680    -0.7610 ha         1 8HH       0.141000
     24 H6           5.1190     1.6740    -0.7470 ha         1 8HH       0.126000
     25 H7           5.9750    -0.4940     0.1050 h4         1 8HH       0.019100
     26 H8           2.1960    -1.8370     0.9410 h4         1 8HH       0.018100
     27 H9          -3.9050    -3.4380    -1.1980 hc         1 8HH       0.050033
     28 H10         -3.1840    -4.7820    -0.3140 hc         1 8HH       0.050033
     29 H11         -4.1120    -3.5630     0.5550 hc         1 8HH       0.050033
     30 H12         -3.3830    -1.2040     0.0190 hn         1 8HH       0.529000
     31 H13         -4.0030     3.0160     0.1480 h4         1 8HH       0.043800
@<TRIPOS>BOND
     1     1    10 1   
     2     1    11 1   
     3     1    19 1   
     4     1    20 1   
     5     2     3 2   
     6     2    11 1   
     7     2    12 1   
     8     3    17 1   
     9     3    21 1   
    10     4    14 1   
    11     4    15 2   
    12     4    22 1   
    13     5     6 ar  
    14     5     9 ar  
    15     5    17 1   
    16     6     7 ar  
    17     6    23 1   
    18     7     8 ar  
    19     7    24 1   
    20     8    18 ar  
    21     8    25 1   
    22     9    18 ar  
    23     9    26 1   
    24    10    27 1   
    25    10    28 1   
    26    10    29 1   
    27    11    30 1   
    28    12    13 1   
    29    12    15 1   
    30    13    14 2   
    31    14    31 1   
    32    15    16 1   
    33    16    17 2   
@<TRIPOS>SUBSTRUCTURE
     1 8HH         1 TEMP              0 ****  ****    0 ROOT
