@<TRIPOS>MOLECULE
8HI
   80    83     1     0     0
SMALL
No Charge or Current Charge


@<TRIPOS>ATOM
      1 N1          -3.0320     0.0910    -0.1120 ns         1 8HI      -0.139000
      2 C4           2.9850    -2.3080     0.7300 ca         1 8HI      -0.074500
      3 C5           3.7470    -3.4410     1.0690 ca         1 8HI      -0.153000
      4 C6           0.9920    -1.2560    -0.3950 cc         1 8HI      -0.108000
      5 C7           1.5470    -0.1300    -0.9580 cd         1 8HI      -0.106300
      6 C8          -0.7640     0.0760    -0.9920 cd         1 8HI      -0.248600
      7 C10         -1.3750    -2.2160    -0.1170 ca         1 8HI      -0.024000
      8 C13         -3.1920    -4.2230     0.6970 ca         1 8HI      -0.112000
      9 C15         -2.4650    -2.5760    -0.9400 ca         1 8HI      -0.100500
     10 C17         -4.3910     0.3400     0.2160 ca         1 8HI       0.045000
     11 C20         -7.0950     0.6920     0.9710 ca         1 8HI      -0.312500
     12 C21         -6.4810     1.6060     0.0930 ca         1 8HI       0.018500
     13 C22         -5.1370     1.4300    -0.2810 ca         1 8HI      -0.176500
     14 C28          5.1670     1.3530    -0.4190 c3         1 8HI       0.167300
     15 O5          10.1640     3.7140     1.4650 o          1 8HI      -0.735000
     16 O6           9.6710     2.0740     2.7690 o          1 8HI      -0.735000
     17 C31          7.8570     3.2510     1.8110 c3         1 8HI      -0.234400
     18 C30          7.3140     2.3220     0.7020 c3         1 8HI       0.187300
     19 O4           7.8010     2.7480    -0.5670 oh         1 8HI      -0.637000
     20 C29          5.7650     2.3070     0.6460 c3         1 8HI      -0.148400
     21 O3           5.4700     1.8610    -1.7250 oh         1 8HI      -0.651000
     22 C27          3.6330     1.2040    -0.2790 c3         1 8HI      -0.113400
     23 C3           1.8110    -2.4320    -0.0460 ca         1 8HI      -0.018000
     24 C2           1.4090    -3.7220    -0.4570 ca         1 8HI      -0.074500
     25 C1           2.1700    -4.8560    -0.1190 ca         1 8HI      -0.153000
     26 C            3.3380    -4.7110     0.6410 ca         1 8HI       0.166000
     27 F            4.0680    -5.8000     0.9680 f          1 8HI      -0.183000
     28 N            0.4660     0.6940    -1.3610 na         1 8HI       0.071000
     29 C23          0.6520     2.0280    -2.0170 c3         1 8HI       0.080300
     30 C25          0.1370     2.0950    -3.4740 c3         1 8HI      -0.109100
     31 C9          -0.4080    -1.1940    -0.5510 cc         1 8HI      -0.064000
     32 C11         -1.1890    -2.9010     1.1010 ca         1 8HI      -0.100500
     33 C12         -2.0960    -3.8930     1.5110 ca         1 8HI      -0.114000
     34 C14         -3.3730    -3.5680    -0.5310 ca         1 8HI      -0.114000
     35 C16         -2.1480     0.6840    -0.9990 c          1 8HI       0.657700
     36 O           -2.4590     1.6510    -1.6770 o          1 8HI      -0.579100
     37 C18         -5.0140    -0.5640     1.0960 ca         1 8HI      -0.176500
     38 C19         -6.3560    -0.3950     1.4740 ca         1 8HI       0.018500
     39 S           -8.8060     0.9090     1.4520 sy         1 8HI       1.132600
     40 O1          -9.0680     0.2590     2.7360 o          1 8HI      -0.550500
     41 O2          -9.2460     2.2670     1.1420 o          1 8HI      -0.550500
     42 N2          -9.5750    -0.0120     0.3420 n8         1 8HI      -1.004100
     43 HN1         -2.6310    -0.6840     0.3970 hn         1 8HI       0.170000
     44 H4           3.2960    -1.3370     1.1010 ha         1 8HI       0.121500
     45 H5           4.6460    -3.3360     1.6700 ha         1 8HI       0.132000
     46 H13         -3.8940    -4.9910     1.0140 ha         1 8HI       0.111000
     47 H15         -2.6020    -2.0920    -1.9040 ha         1 8HI       0.122000
     48 H21         -7.0360     2.4560    -0.3030 ha         1 8HI       0.134500
     49 H22         -4.6970     2.1570    -0.9550 ha         1 8HI       0.136500
     50 H24          0.7170     3.1490    -0.1420 hc         1 8HI       0.052533
     51 H24A         0.6100     4.1680    -1.5870 hc         1 8HI       0.052533
     52 H24B        -0.8250     3.3280    -0.9950 hc         1 8HI       0.052533
     53 H26          3.6050    -0.7450    -1.2390 hc         1 8HI       0.068700
     54 H26A         3.1170     0.5310    -2.2890 hc         1 8HI       0.068700
     55 H28          5.6210     0.3600    -0.2810 h1         1 8HI       0.086700
     56 H31          7.3060     2.9660     2.7160 hc         1 8HI       0.016700
     57 H31A         7.6700     4.2850     1.4950 hc         1 8HI       0.016700
     58 H30          7.6520     1.2950     0.9130 h1         1 8HI       0.082700
     59 HO4          7.0960     2.4690    -1.2030 ho         1 8HI       0.417000
     60 H29          5.3900     3.3250     0.4810 hc         1 8HI       0.036200
     61 H29A         5.3930     1.9970     1.6310 hc         1 8HI       0.036200
     62 HO3          4.7680     2.5090    -1.9490 ho         1 8HI       0.424000
     63 H27          3.1580     2.1830    -0.4110 hc         1 8HI       0.040700
     64 H27A         3.4040     0.8980     0.7480 hc         1 8HI       0.040700
     65 H2           0.5150    -3.8490    -1.0620 ha         1 8HI       0.121500
     66 H1           1.8560    -5.8430    -0.4480 ha         1 8HI       0.132000
     67 H23          1.7290     2.1630    -2.1390 h1         1 8HI       0.068700
     68 H25         -0.9520     2.0390    -3.5450 hc         1 8HI       0.052533
     69 H25A         0.4530     3.0330    -3.9450 hc         1 8HI       0.052533
     70 H25B         0.5550     1.2690    -4.0610 hc         1 8HI       0.052533
     71 H11         -0.3470    -2.6510     1.7430 ha         1 8HI       0.122000
     72 H12         -1.9490    -4.4060     2.4590 ha         1 8HI       0.113000
     73 H14         -4.2130    -3.8310    -1.1700 ha         1 8HI       0.113000
     74 H18         -4.4550    -1.4100     1.4900 ha         1 8HI       0.136500
     75 H19         -6.8150    -1.1120     2.1530 ha         1 8HI       0.134500
     76 HN2         -8.8720    -0.0960    -0.3880 hn         1 8HI       0.469500
     77 HN2A       -10.2400     0.6590    -0.0350 hn         1 8HI       0.469500
     78 C26          3.0100     0.1740    -1.2580 c3         1 8HI      -0.023100
     79 C24          0.2550     3.2350    -1.1330 c3         1 8HI      -0.109100
     80 C32          9.3540     2.9940     2.0300 c          1 8HI       0.728000
@<TRIPOS>BOND
     1     1    10 1   
     2     1    35 1   
     3     1    43 1   
     4     2     3 ar  
     5     2    23 ar  
     6     2    44 1   
     7     3    26 ar  
     8     3    45 1   
     9     4     5 2   
    10     4    23 1   
    11     4    31 1   
    12     5    28 1   
    13     5    78 1   
    14     6    28 1   
    15     6    31 2   
    16     6    35 1   
    17     7     9 ar  
    18     7    31 1   
    19     7    32 ar  
    20     8    33 ar  
    21     8    34 ar  
    22     8    46 1   
    23     9    34 ar  
    24     9    47 1   
    25    10    13 ar  
    26    10    37 ar  
    27    11    12 ar  
    28    11    38 ar  
    29    11    39 1   
    30    12    13 ar  
    31    12    48 1   
    32    13    49 1   
    33    14    20 1   
    34    14    21 1   
    35    14    22 1   
    36    14    55 1   
    37    15    80 1   
    38    16    80 1   
    39    17    18 1   
    40    17    56 1   
    41    17    57 1   
    42    17    80 1   
    43    18    19 1   
    44    18    20 1   
    45    18    58 1   
    46    19    59 1   
    47    20    60 1   
    48    20    61 1   
    49    21    62 1   
    50    22    63 1   
    51    22    64 1   
    52    22    78 1   
    53    23    24 ar  
    54    24    25 ar  
    55    24    65 1   
    56    25    26 ar  
    57    25    66 1   
    58    26    27 1   
    59    28    29 1   
    60    29    30 1   
    61    29    67 1   
    62    29    79 1   
    63    30    68 1   
    64    30    69 1   
    65    30    70 1   
    66    32    33 ar  
    67    32    71 1   
    68    33    72 1   
    69    34    73 1   
    70    35    36 2   
    71    37    38 ar  
    72    37    74 1   
    73    38    75 1   
    74    39    40 2   
    75    39    41 2   
    76    39    42 1   
    77    42    76 1   
    78    42    77 1   
    79    50    79 1   
    80    51    79 1   
    81    52    79 1   
    82    53    78 1   
    83    54    78 1   
@<TRIPOS>SUBSTRUCTURE
     1 8HI         1 TEMP              0 ****  ****    0 ROOT
