@<TRIPOS>MOLECULE
8HI
   80    83     1     0     0
SMALL
abcg2


@<TRIPOS>ATOM
      1 N1          -2.8100     0.5130     0.0800 ns         1 8HI      -0.139000
      2 C4           2.8420    -2.5260     0.6580 ca         1 8HI      -0.074500
      3 C5           3.5450    -3.6890     0.9400 ca         1 8HI      -0.153000
      4 C6           1.0050    -1.3010    -0.5220 cc         1 8HI      -0.108000
      5 C7           1.5180    -0.1260    -1.0420 cd         1 8HI      -0.106300
      6 C8          -0.6910     0.1320    -0.8930 cd         1 8HI      -0.248600
      7 C10         -1.3570    -2.1410     0.0610 ca         1 8HI      -0.024000
      8 C13         -3.2000    -4.0110     1.0270 ca         1 8HI      -0.112000
      9 C15         -2.4500    -2.5300    -0.7150 ca         1 8HI      -0.100500
     10 C17         -4.1880     0.6290     0.2140 ca         1 8HI       0.045000
     11 C20         -6.9250     0.7650     0.6610 ca         1 8HI      -0.312500
     12 C21         -6.3670     1.4310    -0.4170 ca         1 8HI       0.018500
     13 C22         -5.0010     1.3700    -0.6450 ca         1 8HI      -0.176500
     14 C28          5.0750     1.3800    -0.5600 c3         1 8HI       0.167300
     15 O5           9.8610     4.0760     2.1400 o          1 8HI      -0.735000
     16 O6           9.7240     1.8570     2.0330 o          1 8HI      -0.735000
     17 C31          7.7230     3.1040     1.7420 c3         1 8HI      -0.234400
     18 C30          7.2110     2.1500     0.6730 c3         1 8HI       0.187300
     19 O4           7.8640     2.3740    -0.5630 oh         1 8HI      -0.637000
     20 C29          5.6900     2.2160     0.5630 c3         1 8HI      -0.148400
     21 O3           5.2050     2.0020    -1.8260 oh         1 8HI      -0.651000
     22 C27          3.6170     1.0500    -0.2490 c3         1 8HI      -0.113400
     23 C3           1.7510    -2.5280    -0.2090 ca         1 8HI      -0.018000
     24 C2           1.3690    -3.7440    -0.7810 ca         1 8HI      -0.074500
     25 C1           2.0520    -4.9180    -0.5070 ca         1 8HI      -0.153000
     26 C            3.1340    -4.8680     0.3510 ca         1 8HI       0.166000
     27 F            3.8050    -6.0010     0.6200 f          1 8HI      -0.183000
     28 N            0.4840     0.7340    -1.2740 na         1 8HI       0.071000
     29 C23          0.6790     2.0920    -1.8010 c3         1 8HI       0.080300
     30 C25          0.3620     2.1760    -3.2880 c3         1 8HI      -0.109100
     31 C9          -0.3980    -1.1370    -0.4250 cc         1 8HI      -0.064000
     32 C11         -1.1940    -2.7150     1.3220 ca         1 8HI      -0.100500
     33 C12         -2.1090    -3.6420     1.8020 ca         1 8HI      -0.114000
     34 C14         -3.3670    -3.4530    -0.2340 ca         1 8HI      -0.114000
     35 C16         -2.0440     0.7060    -1.0330 c          1 8HI       0.657700
     36 O           -2.4540     1.2560    -2.0400 o          1 8HI      -0.579100
     37 C18         -4.7680    -0.0410     1.2990 ca         1 8HI      -0.176500
     38 C19         -6.1250     0.0280     1.5270 ca         1 8HI       0.018500
     39 S           -8.6570     0.8740     0.9730 sy         1 8HI       1.132600
     40 O1          -8.8860     1.0320     2.4030 o          1 8HI      -0.550500
     41 O2          -9.2110     1.8760     0.0720 o          1 8HI      -0.550500
     42 N2          -9.1500    -0.6610     0.6100 n8         1 8HI      -1.004100
     43 HN1         -2.3450     0.0810     0.8650 hn         1 8HI       0.170000
     44 H4           3.1470    -1.6060     1.1400 ha         1 8HI       0.121500
     45 H5           4.3920    -3.6760     1.6140 ha         1 8HI       0.132000
     46 H13         -3.9160    -4.7310     1.4030 ha         1 8HI       0.111000
     47 H15         -2.5830    -2.1140    -1.7060 ha         1 8HI       0.122000
     48 H21         -6.9840     2.0110    -1.0890 ha         1 8HI       0.134500
     49 H22         -4.5860     1.9090    -1.4800 ha         1 8HI       0.136500
     50 H24          0.1990     3.0220     0.0980 hc         1 8HI       0.052533
     51 H24A         0.3630     4.1330    -1.2570 hc         1 8HI       0.052533
     52 H24B        -1.0960     3.1750    -1.1000 hc         1 8HI       0.052533
     53 H26          3.4860    -0.7370    -1.4330 hc         1 8HI       0.068700
     54 H26A         3.0290     0.6970    -2.3070 hc         1 8HI       0.068700
     55 H28          5.6260     0.4370    -0.6450 h1         1 8HI       0.086700
     56 H31          7.2140     2.8760     2.6870 hc         1 8HI       0.016700
     57 H31A         7.4400     4.1300     1.4840 hc         1 8HI       0.016700
     58 H30          7.4870     1.1310     0.9630 h1         1 8HI       0.082700
     59 HO4          7.4700     3.1470    -0.9780 ho         1 8HI       0.417000
     60 H29          5.3620     3.2580     0.4500 hc         1 8HI       0.036200
     61 H29A         5.2810     1.8850     1.5220 hc         1 8HI       0.036200
     62 HO3          4.7280     2.8390    -1.7980 ho         1 8HI       0.424000
     63 H27          3.0630     1.9810    -0.0770 hc         1 8HI       0.040700
     64 H27A         3.5790     0.5120     0.7010 hc         1 8HI       0.040700
     65 H2           0.5290    -3.7730    -1.4630 ha         1 8HI       0.121500
     66 H1           1.7520    -5.8540    -0.9600 ha         1 8HI       0.132000
     67 H23          1.7450     2.2800    -1.6960 h1         1 8HI       0.068700
     68 H25         -0.6890     1.9890    -3.4870 hc         1 8HI       0.052533
     69 H25A         0.6120     3.1710    -3.6570 hc         1 8HI       0.052533
     70 H25B         0.9560     1.4530    -3.8490 hc         1 8HI       0.052533
     71 H11         -0.3520    -2.4220     1.9370 ha         1 8HI       0.122000
     72 H12         -1.9690    -4.0710     2.7850 ha         1 8HI       0.113000
     73 H14         -4.2100    -3.7420    -0.8480 ha         1 8HI       0.113000
     74 H18         -4.1460    -0.6260     1.9650 ha         1 8HI       0.136500
     75 H19         -6.5490    -0.4990     2.3720 ha         1 8HI       0.134500
     76 HN2         -9.1560    -0.8440    -0.3880 hn         1 8HI       0.469500
     77 HN2A       -10.0620    -0.8620     1.0100 hn         1 8HI       0.469500
     78 C26          2.9430     0.2050    -1.3350 c3         1 8HI      -0.023100
     79 C24         -0.0170     3.1550    -0.9620 c3         1 8HI      -0.109100
     80 C32          9.2390     3.0060     1.9830 c          1 8HI       0.728000
@<TRIPOS>BOND
     1     1    10 1   
     2     1    35 1   
     3     1    43 1   
     4     2     3 ar  
     5     2    23 ar  
     6     2    44 1   
     7     3    26 ar  
     8     3    45 1   
     9     4     5 2   
    10     4    23 1   
    11     4    31 1   
    12     5    28 1   
    13     5    78 1   
    14     6    28 1   
    15     6    31 2   
    16     6    35 1   
    17     7     9 ar  
    18     7    31 1   
    19     7    32 ar  
    20     8    33 ar  
    21     8    34 ar  
    22     8    46 1   
    23     9    34 ar  
    24     9    47 1   
    25    10    13 ar  
    26    10    37 ar  
    27    11    12 ar  
    28    11    38 ar  
    29    11    39 1   
    30    12    13 ar  
    31    12    48 1   
    32    13    49 1   
    33    14    20 1   
    34    14    21 1   
    35    14    22 1   
    36    14    55 1   
    37    15    80 1   
    38    16    80 1   
    39    17    18 1   
    40    17    56 1   
    41    17    57 1   
    42    17    80 1   
    43    18    19 1   
    44    18    20 1   
    45    18    58 1   
    46    19    59 1   
    47    20    60 1   
    48    20    61 1   
    49    21    62 1   
    50    22    63 1   
    51    22    64 1   
    52    22    78 1   
    53    23    24 ar  
    54    24    25 ar  
    55    24    65 1   
    56    25    26 ar  
    57    25    66 1   
    58    26    27 1   
    59    28    29 1   
    60    29    30 1   
    61    29    67 1   
    62    29    79 1   
    63    30    68 1   
    64    30    69 1   
    65    30    70 1   
    66    32    33 ar  
    67    32    71 1   
    68    33    72 1   
    69    34    73 1   
    70    35    36 2   
    71    37    38 ar  
    72    37    74 1   
    73    38    75 1   
    74    39    40 2   
    75    39    41 2   
    76    39    42 1   
    77    42    76 1   
    78    42    77 1   
    79    50    79 1   
    80    51    79 1   
    81    52    79 1   
    82    53    78 1   
    83    54    78 1   
@<TRIPOS>SUBSTRUCTURE
     1 8HI         1 TEMP              0 ****  ****    0 ROOT
