@<TRIPOS>MOLECULE
8HJ
   21    22     1     0     0
SMALL
bcc


@<TRIPOS>ATOM
      1 N1          -1.1350    -1.0620     0.2640 ns         1 8HJ      -0.476100
      2 C4           1.1890     1.7560     0.0390 ca         1 8HJ      -0.056000
      3 C5           2.4150     1.1090    -0.0060 ca         1 8HJ      -0.189000
      4 C6           2.4530    -0.2820     0.0440 ca         1 8HJ       0.172100
      5 C7           1.2680    -1.0070     0.1270 ca         1 8HJ      -0.275000
      6 C8           0.0520    -0.3350     0.1680 ca         1 8HJ       0.121600
      7 C1          -2.4100     0.8670    -0.4560 c6         1 8HJ      -0.160400
      8 C2          -1.3520     1.7120     0.2420 c6         1 8HJ      -0.015100
      9 C3          -0.0060     1.0580     0.1340 ca         1 8HJ      -0.165300
     10 C9          -2.3730    -0.5770    -0.0240 c          1 8HJ       0.713500
     11 O1          -3.3610    -1.2870     0.0380 o          1 8HJ      -0.616500
     12 O2           3.6590    -0.8820     0.0000 oh         1 8HJ      -0.491100
     13 H8          -1.0680    -2.0510     0.4570 hn         1 8HJ       0.323500
     14 H5           1.1640     2.8380     0.0040 ha         1 8HJ       0.135000
     15 H6           3.3340     1.6760    -0.0800 ha         1 8HJ       0.151000
     16 H7           1.2880    -2.0910     0.1510 ha         1 8HJ       0.135000
     17 H2          -3.4120     1.2550    -0.2790 hc         1 8HJ       0.076700
     18 H1          -2.2460     0.8840    -1.5390 hc         1 8HJ       0.076700
     19 H4          -1.3300     2.7130    -0.1880 hc         1 8HJ       0.056200
     20 H3          -1.6210     1.8330     1.2970 hc         1 8HJ       0.056200
     21 H9           3.5610    -1.8410     0.0240 ho         1 8HJ       0.428000
@<TRIPOS>BOND
     1     1     6 1   
     2     1    10 1   
     3     1    13 1   
     4     2     3 ar  
     5     2     9 ar  
     6     2    14 1   
     7     3     4 ar  
     8     3    15 1   
     9     4     5 ar  
    10     4    12 1   
    11     5     6 ar  
    12     5    16 1   
    13     6     9 ar  
    14     7     8 1   
    15     7    10 1   
    16     7    17 1   
    17     7    18 1   
    18     8     9 1   
    19     8    19 1   
    20     8    20 1   
    21    10    11 2   
    22    12    21 1   
@<TRIPOS>SUBSTRUCTURE
     1 8HJ         1 TEMP              0 ****  ****    0 ROOT
