@<TRIPOS>MOLECULE
8HJ
   21    22     1     0     0
SMALL
No Charge or Current Charge


@<TRIPOS>ATOM
      1 N1          -1.1290    -1.1080     0.1440 ns         1 8HJ      -0.150000
      2 C4           1.2010     1.7850     0.0740 ca         1 8HJ      -0.038000
      3 C5           2.4420     1.1250     0.0470 ca         1 8HJ      -0.171000
      4 C6           2.4950    -0.2770     0.0580 ca         1 8HJ       0.172100
      5 C7           1.3110    -1.0270     0.0930 ca         1 8HJ      -0.257000
      6 C8           0.0700    -0.3700     0.1110 ca         1 8HJ       0.029000
      7 C1          -2.4970     0.8710    -0.4060 c6         1 8HJ      -0.160400
      8 C2          -1.3510     1.7400     0.1750 c6         1 8HJ      -0.015100
      9 C3           0.0090     1.0370     0.1020 ca         1 8HJ      -0.165300
     10 C9          -2.4070    -0.6100    -0.0030 c          1 8HJ       0.571000
     11 O1          -3.4040    -1.2930     0.1930 o          1 8HJ      -0.541000
     12 O2           3.7000    -0.9080     0.0360 oh         1 8HJ      -0.530100
     13 H8          -1.0480    -2.0910     0.3650 hn         1 8HJ       0.157000
     14 H5           1.1680     2.8730     0.0770 ha         1 8HJ       0.117000
     15 H6           3.3630     1.7010     0.0230 ha         1 8HJ       0.133000
     16 H7           1.3480    -2.1140     0.1020 ha         1 8HJ       0.117000
     17 H2          -3.4980     1.2700    -0.2000 hc         1 8HJ       0.076700
     18 H1          -2.3530     0.8800    -1.4940 hc         1 8HJ       0.076700
     19 H4          -1.3140     2.7040    -0.3530 hc         1 8HJ       0.056200
     20 H3          -1.5720     1.9740     1.2260 hc         1 8HJ       0.056200
     21 H9           3.5370    -1.8750     0.0490 ho         1 8HJ       0.467000
@<TRIPOS>BOND
     1     1     6 1   
     2     1    10 1   
     3     1    13 1   
     4     2     3 ar  
     5     2     9 ar  
     6     2    14 1   
     7     3     4 ar  
     8     3    15 1   
     9     4     5 ar  
    10     4    12 1   
    11     5     6 ar  
    12     5    16 1   
    13     6     9 ar  
    14     7     8 1   
    15     7    10 1   
    16     7    17 1   
    17     7    18 1   
    18     8     9 1   
    19     8    19 1   
    20     8    20 1   
    21    10    11 2   
    22    12    21 1   
@<TRIPOS>SUBSTRUCTURE
     1 8HJ         1 TEMP              0 ****  ****    0 ROOT
