@<TRIPOS>MOLECULE
8HK
   26    27     1     0     0
SMALL
bcc


@<TRIPOS>ATOM
      1 C2           0.3870     1.2110     0.2810 ca         1 8HK      -0.140500
      2 C10         -1.6650     0.0310    -0.0610 ca         1 8HK      -0.319500
      3 C12          0.4170    -1.1290    -0.2600 ca         1 8HK      -0.140500
      4 O1          -3.8620    -1.1150    -0.8980 o          1 8HK      -0.599800
      5 C4           2.5850     0.0570     0.0740 cp         1 8HK      -0.172300
      6 C5           3.3000    -1.0270     0.5850 ca         1 8HK       0.419200
      7 C8           4.7060     1.0950    -0.3340 ca         1 8HK      -0.246300
      8 C11         -0.9670    -1.1420    -0.3080 ca         1 8HK      -0.032500
      9 C1           1.1130     0.0450     0.0340 cp         1 8HK       0.028000
     10 C7           5.3100    -0.0400     0.1860 ca         1 8HK       0.410200
     11 N3          -3.9710    -0.2500     1.4250 n8         1 8HK      -0.888700
     12 C9           3.3240     1.1420    -0.3910 ca         1 8HK      -0.074000
     13 S1          -3.4380     0.0250    -0.1040 sy         1 8HK       1.286200
     14 C3          -0.9960     1.2120     0.2320 ca         1 8HK      -0.032500
     15 O2          -3.8750     1.3640    -0.4580 o          1 8HK      -0.599800
     16 N6           4.6220    -1.0810     0.6420 nb         1 8HK      -0.664000
     17 H1           0.9020     2.1300     0.5270 ha         1 8HK       0.140500
     18 H2           0.9560    -2.0400    -0.4820 ha         1 8HK       0.140500
     19 H3           2.7680    -1.8850     0.9830 h4         1 8HK       0.021100
     20 H4           5.3070     1.9180    -0.6950 ha         1 8HK       0.146000
     21 H5          -1.4840    -2.0600    -0.5530 ha         1 8HK       0.155500
     22 H6           6.3900    -0.1110     0.2370 h4         1 8HK       0.023100
     23 H7          -3.7160     0.4750     2.0870 hn         1 8HK       0.421300
     24 H8          -3.7400    -1.1710     1.7810 hn         1 8HK       0.421300
     25 H9           2.8270     2.0070    -0.8110 ha         1 8HK       0.142000
     26 H10         -1.5360     2.1290     0.4240 ha         1 8HK       0.155500
@<TRIPOS>BOND
     1     1     9 ar  
     2     1    14 ar  
     3     1    17 1   
     4     2     8 ar  
     5     2    13 1   
     6     2    14 ar  
     7     3     8 ar  
     8     3     9 ar  
     9     3    18 1   
    10     4    13 2   
    11     5     6 ar  
    12     5     9 1   
    13     5    12 ar  
    14     6    16 ar  
    15     6    19 1   
    16     7    10 ar  
    17     7    12 ar  
    18     7    20 1   
    19     8    21 1   
    20    10    16 ar  
    21    10    22 1   
    22    11    13 1   
    23    11    23 1   
    24    11    24 1   
    25    12    25 1   
    26    13    15 2   
    27    14    26 1   
@<TRIPOS>SUBSTRUCTURE
     1 8HK         1 TEMP              0 ****  ****    0 ROOT
