@<TRIPOS>MOLECULE
8HK
   26    27     1     0     0
SMALL
No Charge or Current Charge


@<TRIPOS>ATOM
      1 C2           0.3630     1.2670     0.1860 ca         1 8HK      -0.122500
      2 C10         -1.7280     0.0350    -0.0450 ca         1 8HK      -0.319500
      3 C12          0.4080    -1.1350    -0.1530 ca         1 8HK      -0.122500
      4 O1          -3.9920    -1.2370    -0.6800 o          1 8HK      -0.529000
      5 C4           2.6150     0.0990     0.0810 cp         1 8HK      -0.107000
      6 C5           3.3570    -0.9930     0.6070 ca         1 8HK       0.353900
      7 C8           4.7600     1.1710    -0.3300 ca         1 8HK      -0.163000
      8 C11         -0.9970    -1.1600    -0.1950 ca         1 8HK      -0.014500
      9 C1           1.1180     0.0770     0.0370 cp         1 8HK       0.028000
     10 C7           5.3930     0.0410     0.2100 ca         1 8HK       0.344900
     11 N3          -3.8820    -0.1320     1.4920 n8         1 8HK      -0.999100
     12 C9           3.3580     1.2060    -0.3980 ca         1 8HK      -0.056000
     13 S1          -3.5220     0.0160    -0.0950 sy         1 8HK       1.144600
     14 C3          -1.0410     1.2510     0.1470 ca         1 8HK      -0.014500
     15 O2          -4.0420     1.3260    -0.4880 o          1 8HK      -0.529000
     16 N6           4.7100    -1.0300     0.6750 nb         1 8HK      -0.664000
     17 H1           0.8690     2.2140     0.3500 ha         1 8HK       0.122500
     18 H2           0.9490    -2.0680    -0.2850 ha         1 8HK       0.122500
     19 H3           2.8450    -1.8690     1.0020 h4         1 8HK       0.021100
     20 H4           5.3550     2.0040    -0.6930 ha         1 8HK       0.128000
     21 H5          -1.5070    -2.1100    -0.3490 ha         1 8HK       0.137500
     22 H6           6.4800    -0.0110     0.2730 h4         1 8HK       0.023100
     23 H7          -3.0020    -0.4660     1.8760 hn         1 8HK       0.476500
     24 H8          -4.4720    -0.9610     1.4770 hn         1 8HK       0.476500
     25 H9           2.8590     2.0720    -0.8270 ha         1 8HK       0.124000
     26 H10         -1.5890     2.1840     0.2700 ha         1 8HK       0.137500
@<TRIPOS>BOND
     1     1     9 ar  
     2     1    14 ar  
     3     1    17 1   
     4     2     8 ar  
     5     2    13 1   
     6     2    14 ar  
     7     3     8 ar  
     8     3     9 ar  
     9     3    18 1   
    10     4    13 2   
    11     5     6 ar  
    12     5     9 1   
    13     5    12 ar  
    14     6    16 ar  
    15     6    19 1   
    16     7    10 ar  
    17     7    12 ar  
    18     7    20 1   
    19     8    21 1   
    20    10    16 ar  
    21    10    22 1   
    22    11    13 1   
    23    11    23 1   
    24    11    24 1   
    25    12    25 1   
    26    13    15 2   
    27    14    26 1   
@<TRIPOS>SUBSTRUCTURE
     1 8HK         1 TEMP              0 ****  ****    0 ROOT
