@<TRIPOS>MOLECULE
8HL
   37    37     1     0     0
SMALL
bcc


@<TRIPOS>ATOM
      1 C10          7.0880     4.6270    11.7220 ca         1 8HL       0.163100
      2 C13          9.3140     3.9280    11.1450 ca         1 8HL       0.255100
      3 C15          9.8290     4.4680    12.3570 ca         1 8HL      -0.299600
      4 C01         11.4450    12.0840    18.1430 c3         1 8HL      -0.087100
      5 C02         11.2090    11.4040    16.8020 c3         1 8HL      -0.076400
      6 C03         10.7520     9.9570    16.9420 c3         1 8HL      -0.075400
      7 C04         10.4880     9.2760    15.6050 c3         1 8HL      -0.074400
      8 C05         10.0390     7.8270    15.7430 c3         1 8HL      -0.071400
      9 C06          9.7380     7.1630    14.4060 c3         1 8HL      -0.065400
     10 C08          8.9210     5.0710    13.2480 ca         1 8HL       0.041700
     11 C09          7.5690     5.1400    12.9250 ca         1 8HL      -0.324000
     12 C12          7.9560     4.0190    10.8330 ca         1 8HL      -0.277000
     13 C16         11.3130     4.3480    12.6040 c          1 8HL       0.936200
     14 O11          5.7850     4.6930    11.3850 oh         1 8HL      -0.516100
     15 O14         10.1110     3.3260    10.2770 oh         1 8HL      -0.616100
     16 O17         11.8480     4.8490    13.5950 o          1 8HL      -0.791800
     17 O18         11.9670     3.7010    11.7120 o          1 8HL      -0.791800
     18 H013        11.7550    13.1230    18.0180 hc         1 8HL       0.025700
     19 H012        10.5390    12.0810    18.7510 hc         1 8HL       0.025700
     20 H011        12.2240    11.5750    18.7140 hc         1 8HL       0.025700
     21 H021        12.1250    11.4370    16.2050 hc         1 8HL       0.035200
     22 H022        10.4590    11.9650    16.2350 hc         1 8HL       0.035200
     23 H032         9.8420     9.9220    17.5510 hc         1 8HL       0.033700
     24 H031        11.5080     9.3910    17.4970 hc         1 8HL       0.033700
     25 H042        11.3940     9.3180    14.9900 hc         1 8HL       0.036200
     26 H041         9.7270     9.8410    15.0560 hc         1 8HL       0.036200
     27 H051         9.1480     7.7820    16.3790 hc         1 8HL       0.031700
     28 H052        10.8130     7.2560    16.2670 hc         1 8HL       0.031700
     29 H061        10.6200     7.2100    13.7640 hc         1 8HL       0.046200
     30 H062         8.9490     7.7240    13.8930 hc         1 8HL       0.046200
     31 H072         8.4220     5.6820    15.2150 hc         1 8HL       0.044700
     32 H071        10.0860     5.1460    15.0630 hc         1 8HL       0.044700
     33 H091         6.8800     5.6030    13.6240 ha         1 8HL       0.104000
     34 H121         7.5930     3.6060     9.9000 ha         1 8HL       0.135000
     35 H111         5.2840     5.1330    12.0800 ho         1 8HL       0.406000
     36 H141        11.0510     3.3780    10.7530 ho         1 8HL       0.516000
     37 C07          9.3000     5.7060    14.5630 c3         1 8HL      -0.021100
@<TRIPOS>BOND
     1     1    11 ar  
     2     1    12 ar  
     3     1    14 1   
     4     2     3 ar  
     5     2    12 ar  
     6     2    15 1   
     7     3    10 ar  
     8     3    13 1   
     9     4     5 1   
    10     4    18 1   
    11     4    19 1   
    12     4    20 1   
    13     5     6 1   
    14     5    21 1   
    15     5    22 1   
    16     6     7 1   
    17     6    23 1   
    18     6    24 1   
    19     7     8 1   
    20     7    25 1   
    21     7    26 1   
    22     8     9 1   
    23     8    27 1   
    24     8    28 1   
    25     9    29 1   
    26     9    30 1   
    27     9    37 1   
    28    10    11 ar  
    29    10    37 1   
    30    11    33 1   
    31    12    34 1   
    32    13    16 1   
    33    13    17 1   
    34    14    35 1   
    35    15    36 1   
    36    31    37 1   
    37    32    37 1   
@<TRIPOS>SUBSTRUCTURE
     1 8HL         1 TEMP              0 ****  ****    0 ROOT
