@<TRIPOS>MOLECULE
8HL
   37    37     1     0     0
SMALL
No Charge or Current Charge


@<TRIPOS>ATOM
      1 C10          7.1240     4.6980    11.5910 ca         1 8HL       0.163100
      2 C13          9.3100     3.7850    11.1300 ca         1 8HL       0.255100
      3 C15          9.8310     4.3620    12.3060 ca         1 8HL      -0.299600
      4 C01         11.5030    12.1150    18.2480 c3         1 8HL      -0.087100
      5 C02         11.0740    11.4940    16.9050 c3         1 8HL      -0.076400
      6 C03         10.8010     9.9770    17.0000 c3         1 8HL      -0.075400
      7 C04         10.3710     9.3540    15.6530 c3         1 8HL      -0.074400
      8 C05         10.0970     7.8370    15.7480 c3         1 8HL      -0.071400
      9 C06          9.6670     7.2150    14.4020 c3         1 8HL      -0.065400
     10 C08          8.9560     5.0950    13.1550 ca         1 8HL       0.041700
     11 C09          7.6070     5.2550    12.7770 ca         1 8HL      -0.306000
     12 C12          7.9710     3.9570    10.7700 ca         1 8HL      -0.259000
     13 C16         11.2950     4.1840    12.6140 c          1 8HL       0.725600
     14 O11          5.8210     4.8650    11.2480 oh         1 8HL      -0.555100
     15 O14         10.1050     3.0280    10.3330 oh         1 8HL      -0.655100
     16 O17         11.9480     5.1560    12.9530 o          1 8HL      -0.686500
     17 O18         11.7960     3.1080    12.3180 o          1 8HL      -0.686500
     18 H013        11.6850    13.1900    18.1310 hc         1 8HL       0.025700
     19 H012        10.7210    11.9800    19.0050 hc         1 8HL       0.025700
     20 H011        12.4260    11.6490    18.6140 hc         1 8HL       0.025700
     21 H021        11.8590    11.6760    16.1610 hc         1 8HL       0.035200
     22 H022        10.1710    12.0050    16.5480 hc         1 8HL       0.035200
     23 H032        10.0160     9.7980    17.7460 hc         1 8HL       0.033700
     24 H031        11.7060     9.4700    17.3580 hc         1 8HL       0.033700
     25 H042        11.1550     9.5330    14.9070 hc         1 8HL       0.036200
     26 H041         9.4660     9.8620    15.2950 hc         1 8HL       0.036200
     27 H051         9.3130     7.6590    16.4950 hc         1 8HL       0.031700
     28 H052        11.0020     7.3300    16.1060 hc         1 8HL       0.031700
     29 H061        10.4490     7.3930    13.6540 hc         1 8HL       0.046200
     30 H062         8.7640     7.7240    14.0420 hc         1 8HL       0.046200
     31 H072         8.5930     5.5370    15.2350 hc         1 8HL       0.044700
     32 H071        10.2630     5.1820    14.9040 hc         1 8HL       0.044700
     33 H091         6.9340     5.8160    13.4210 ha         1 8HL       0.086000
     34 H121         7.5910     3.5080     9.8570 ha         1 8HL       0.117000
     35 H111         5.3970     5.4040    11.9480 ho         1 8HL       0.445000
     36 H141        10.9150     2.8620    10.8920 ho         1 8HL       0.555000
     37 C07          9.3870     5.6980    14.4950 c3         1 8HL      -0.021100
@<TRIPOS>BOND
     1     1    11 ar  
     2     1    12 ar  
     3     1    14 1   
     4     2     3 ar  
     5     2    12 ar  
     6     2    15 1   
     7     3    10 ar  
     8     3    13 1   
     9     4     5 1   
    10     4    18 1   
    11     4    19 1   
    12     4    20 1   
    13     5     6 1   
    14     5    21 1   
    15     5    22 1   
    16     6     7 1   
    17     6    23 1   
    18     6    24 1   
    19     7     8 1   
    20     7    25 1   
    21     7    26 1   
    22     8     9 1   
    23     8    27 1   
    24     8    28 1   
    25     9    29 1   
    26     9    30 1   
    27     9    37 1   
    28    10    11 ar  
    29    10    37 1   
    30    11    33 1   
    31    12    34 1   
    32    13    16 1   
    33    13    17 1   
    34    14    35 1   
    35    15    36 1   
    36    31    37 1   
    37    32    37 1   
@<TRIPOS>SUBSTRUCTURE
     1 8HL         1 TEMP              0 ****  ****    0 ROOT
