@<TRIPOS>MOLECULE
8HM
   60    65     1     0     0
SMALL
abcg2


@<TRIPOS>ATOM
      1 N1           2.2080     1.1730     1.3110 n          1 8HM      -0.271000
      2 C4           0.9740     3.1420    -0.2010 cc         1 8HM       0.555000
      3 C6           2.8390     2.3920     1.2410 c          1 8HM       0.593800
      4 C8           1.6670     5.0880    -0.4810 cd         1 8HM       0.536900
      5 C13         -2.2830    -0.7130    -0.6840 c6         1 8HM       0.247100
      6 C15         -2.7910     1.1010    -2.1640 c6         1 8HM       0.170800
      7 C20          4.4590    -0.6320     0.3350 ca         1 8HM      -0.050000
      8 C21          5.0740    -1.6110    -0.4320 ca         1 8HM      -0.174000
      9 C22          4.7090    -2.9480    -0.2740 ca         1 8HM       0.156100
     10 C24          3.1170    -2.2900     1.4070 ca         1 8HM      -0.050000
     11 C26          6.2530    -3.6830    -1.9190 c3         1 8HM       0.146900
     12 C28         -5.2400    -1.2260    -0.4690 c6         1 8HM      -0.059700
     13 C23          3.7240    -3.2800     0.6570 ca         1 8HM      -0.174000
     14 C3           0.3650     1.8650    -0.1130 cc         1 8HM      -0.229500
     15 C12         -0.8510     1.3630    -0.6690 cc         1 8HM      -0.005300
     16 C19          3.4730    -0.9520     1.2600 ca         1 8HM      -0.167300
     17 C11         -1.0730     0.0790    -0.3060 cd         1 8HM      -0.235300
     18 C2           1.0290     0.9340     0.6490 cd         1 8HM      -0.041400
     19 C16         -1.8150     2.0930    -1.5450 c6         1 8HM      -0.012100
     20 C29         -6.5460    -1.8270    -0.9860 c6         1 8HM      -0.108900
     21 C33         -5.5470    -0.3110     0.7120 c6         1 8HM      -0.108900
     22 C30         -7.3190    -2.4780     0.1500 c6         1 8HM       0.154600
     23 C32         -6.3800    -1.0470     1.7500 c6         1 8HM       0.154600
     24 C18          2.8220     0.1070     2.1070 c3         1 8HM       0.152300
     25 N7           0.6500     4.2550    -0.8110 nd         1 8HM      -0.694000
     26 N9           2.5940     4.5790     0.2840 nc         1 8HM      -0.486800
     27 N5           2.1500     3.3210     0.4690 n          1 8HM      -0.058500
     28 N14         -3.3110     0.1950    -1.1530 n3         1 8HM      -0.722600
     29 O17          3.8850     2.6560     1.7830 o          1 8HM      -0.493000
     30 O31         -7.5710    -1.5750     1.2040 os         1 8HM      -0.451000
     31 S10          0.1900    -0.5650     0.6950 ss         1 8HM       0.241000
     32 H1           1.7180     6.1110    -0.8230 h5         1 8HM       0.067100
     33 H2          -2.0200    -1.4690    -1.4440 h1         1 8HM       0.043200
     34 H3          -2.6470    -1.2630     0.1860 h1         1 8HM       0.043200
     35 H4          -3.6260     1.6450    -2.6080 h1         1 8HM       0.037200
     36 H5          -2.2950     0.5560    -2.9840 h1         1 8HM       0.037200
     37 H6           4.7740     0.3960     0.2020 ha         1 8HM       0.118500
     38 H7           5.8370    -1.3160    -1.1410 ha         1 8HM       0.127000
     39 H8           2.3520    -2.5670     2.1230 ha         1 8HM       0.118500
     40 H9           6.5410    -4.6350    -2.3570 h1         1 8HM       0.043700
     41 H10          5.8880    -3.0260    -2.7130 h1         1 8HM       0.043700
     42 H11          7.1330    -3.2250    -1.4600 h1         1 8HM       0.043700
     43 H12         -4.6280    -2.0610    -0.1040 hc         1 8HM       0.041700
     44 H13          3.4350    -4.3160     0.7830 ha         1 8HM       0.127000
     45 H14         -1.2830     2.6330    -2.3310 hc         1 8HM       0.073700
     46 H15         -2.3560     2.8420    -0.9610 hc         1 8HM       0.073700
     47 H16         -7.1590    -1.0450    -1.4480 hc         1 8HM       0.054200
     48 H17         -6.3510    -2.5770    -1.7590 hc         1 8HM       0.054200
     49 H18         -4.6280     0.0500     1.1780 hc         1 8HM       0.054200
     50 H19         -6.0900     0.5740     0.3600 hc         1 8HM       0.054200
     51 H20         -8.2890    -2.8390    -0.1970 h1         1 8HM       0.042200
     52 H21         -6.7570    -3.3490     0.5190 h1         1 8HM       0.042200
     53 H22         -5.7750    -1.8540     2.1930 h1         1 8HM       0.042200
     54 H23         -6.6720    -0.3780     2.5610 h1         1 8HM       0.042200
     55 H24          3.5410     0.5770     2.7740 h1         1 8HM       0.079200
     56 H25          2.0480    -0.3290     2.7430 h1         1 8HM       0.079200
     57 H26         -4.2780    -1.2340    -2.3940 h1         1 8HM       0.033700
     58 H27         -5.1770     0.2340    -2.0270 h1         1 8HM       0.033700
     59 C27         -4.5010    -0.5080    -1.5930 c3         1 8HM       0.175800
     60 O25          5.2480    -3.9680    -0.9650 os         1 8HM      -0.339100
@<TRIPOS>BOND
     1     1     3 1   
     2     1    18 1   
     3     1    24 1   
     4     2    14 1   
     5     2    25 2   
     6     2    27 1   
     7     3    27 1   
     8     3    29 2   
     9     4    25 1   
    10     4    26 2   
    11     4    32 1   
    12     5    17 1   
    13     5    28 1   
    14     5    33 1   
    15     5    34 1   
    16     6    19 1   
    17     6    28 1   
    18     6    35 1   
    19     6    36 1   
    20     7     8 ar  
    21     7    16 ar  
    22     7    37 1   
    23     8     9 ar  
    24     8    38 1   
    25     9    13 ar  
    26     9    60 1   
    27    10    13 ar  
    28    10    16 ar  
    29    10    39 1   
    30    11    40 1   
    31    11    41 1   
    32    11    42 1   
    33    11    60 1   
    34    12    20 1   
    35    12    21 1   
    36    12    43 1   
    37    12    59 1   
    38    13    44 1   
    39    14    15 1   
    40    14    18 2   
    41    15    17 2   
    42    15    19 1   
    43    16    24 1   
    44    17    31 1   
    45    18    31 1   
    46    19    45 1   
    47    19    46 1   
    48    20    22 1   
    49    20    47 1   
    50    20    48 1   
    51    21    23 1   
    52    21    49 1   
    53    21    50 1   
    54    22    30 1   
    55    22    51 1   
    56    22    52 1   
    57    23    30 1   
    58    23    53 1   
    59    23    54 1   
    60    24    55 1   
    61    24    56 1   
    62    26    27 1   
    63    28    59 1   
    64    57    59 1   
    65    58    59 1   
@<TRIPOS>SUBSTRUCTURE
     1 8HM         1 TEMP              0 ****  ****    0 ROOT
