@<TRIPOS>MOLECULE
8HM
   60    65     1     0     0
SMALL
No Charge or Current Charge


@<TRIPOS>ATOM
      1 N1           2.3360     1.2500     1.3500 n          1 8HM      -0.271000
      2 C4           1.0630     3.2420    -0.2350 cc         1 8HM       0.555000
      3 C6           2.9600     2.5130     1.1790 c          1 8HM       0.593800
      4 C8           1.6210     5.2210    -0.7300 cd         1 8HM       0.536900
      5 C13         -2.2710    -0.6020    -0.5620 c6         1 8HM       0.247100
      6 C15         -2.7930     1.2960    -2.0430 c6         1 8HM       0.170800
      7 C20          4.5090    -0.6520     0.3040 ca         1 8HM      -0.050000
      8 C21          5.0520    -1.6950    -0.4650 ca         1 8HM      -0.174000
      9 C22          4.6860    -3.0320    -0.2030 ca         1 8HM       0.156100
     10 C24          3.2360    -2.2680     1.6020 ca         1 8HM      -0.050000
     11 C26          6.1190    -3.9210    -2.0060 c3         1 8HM       0.146900
     12 C28         -5.3150    -1.2380    -0.4930 c6         1 8HM      -0.059700
     13 C23          3.7800    -3.3090     0.8320 ca         1 8HM      -0.174000
     14 C3           0.4680     1.9460    -0.0470 cc         1 8HM      -0.229500
     15 C12         -0.7640     1.4480    -0.5640 cc         1 8HM      -0.005300
     16 C19          3.5950    -0.9310     1.3390 ca         1 8HM      -0.167300
     17 C11         -1.0330     0.1630    -0.1610 cd         1 8HM      -0.235300
     18 C2           1.1140     1.0280     0.7230 cd         1 8HM      -0.041400
     19 C16         -1.7120     2.2310    -1.4400 c6         1 8HM      -0.012100
     20 C29         -6.5700    -1.9010    -1.1260 c6         1 8HM      -0.108900
     21 C33         -5.7310    -0.4300     0.7710 c6         1 8HM      -0.108900
     22 C30         -7.3590    -2.7090    -0.0670 c6         1 8HM       0.154600
     23 C32         -6.5620    -1.3070     1.7370 c6         1 8HM       0.154600
     24 C18          3.0000     0.2040     2.1690 c3         1 8HM       0.152300
     25 N7           0.6130     4.2770    -0.9250 nd         1 8HM      -0.694000
     26 N9           2.5930     4.7430     0.0360 nc         1 8HM      -0.486800
     27 N5           2.2690     3.4600     0.3810 n          1 8HM      -0.058500
     28 N14         -3.3340     0.3320    -1.0400 n3         1 8HM      -0.722600
     29 O17          4.0420     2.7820     1.6910 o          1 8HM      -0.493000
     30 O31         -7.7050    -1.8560     1.0450 os         1 8HM      -0.451000
     31 S10          0.2480    -0.5140     0.8670 ss         1 8HM       0.241000
     32 H1           1.5940     6.2170    -1.1580 h5         1 8HM       0.067100
     33 H2          -2.0100    -1.3210    -1.3540 h1         1 8HM       0.043200
     34 H3          -2.6250    -1.1840     0.3010 h1         1 8HM       0.043200
     35 H4          -3.5990     1.9220    -2.4540 h1         1 8HM       0.037200
     36 H5          -2.3540     0.7450    -2.8880 h1         1 8HM       0.037200
     37 H6           4.7990     0.3750     0.0940 ha         1 8HM       0.118500
     38 H7           5.7530    -1.4460    -1.2570 ha         1 8HM       0.127000
     39 H8           2.5350    -2.5030     2.4010 ha         1 8HM       0.118500
     40 H9           6.3840    -4.8920    -2.4410 h1         1 8HM       0.043700
     41 H10          5.6840    -3.3000    -2.8000 h1         1 8HM       0.043700
     42 H11          7.0420    -3.4440    -1.6510 h1         1 8HM       0.043700
     43 H12         -4.6360    -2.0450    -0.1850 hc         1 8HM       0.041700
     44 H13          3.4980    -4.3380     1.0380 ha         1 8HM       0.127000
     45 H14         -1.1830     2.7340    -2.2580 hc         1 8HM       0.073700
     46 H15         -2.2030     3.0150    -0.8500 hc         1 8HM       0.073700
     47 H16         -7.2260    -1.1340    -1.5590 hc         1 8HM       0.054200
     48 H17         -6.2740    -2.5640    -1.9500 hc         1 8HM       0.054200
     49 H18         -4.8420    -0.0530     1.2940 hc         1 8HM       0.054200
     50 H19         -6.3190     0.4510     0.4790 hc         1 8HM       0.054200
     51 H20         -8.2810    -3.1110    -0.5110 h1         1 8HM       0.042200
     52 H21         -6.7560    -3.5550     0.2960 h1         1 8HM       0.042200
     53 H22         -5.9460    -2.1290     2.1320 h1         1 8HM       0.042200
     54 H23         -6.9120    -0.7040     2.5860 h1         1 8HM       0.042200
     55 H24          3.7970     0.6430     2.7820 h1         1 8HM       0.079200
     56 H25          2.2660    -0.2000     2.8780 h1         1 8HM       0.079200
     57 H26         -4.2810    -1.0080    -2.3870 h1         1 8HM       0.033700
     58 H27         -5.2600     0.3820    -1.9150 h1         1 8HM       0.033700
     59 C27         -4.5480    -0.3650    -1.5360 c3         1 8HM       0.175800
     60 O25          5.1860    -4.0970    -0.9250 os         1 8HM      -0.339100
@<TRIPOS>BOND
     1     1     3 1   
     2     1    18 1   
     3     1    24 1   
     4     2    14 1   
     5     2    25 2   
     6     2    27 1   
     7     3    27 1   
     8     3    29 2   
     9     4    25 1   
    10     4    26 2   
    11     4    32 1   
    12     5    17 1   
    13     5    28 1   
    14     5    33 1   
    15     5    34 1   
    16     6    19 1   
    17     6    28 1   
    18     6    35 1   
    19     6    36 1   
    20     7     8 ar  
    21     7    16 ar  
    22     7    37 1   
    23     8     9 ar  
    24     8    38 1   
    25     9    13 ar  
    26     9    60 1   
    27    10    13 ar  
    28    10    16 ar  
    29    10    39 1   
    30    11    40 1   
    31    11    41 1   
    32    11    42 1   
    33    11    60 1   
    34    12    20 1   
    35    12    21 1   
    36    12    43 1   
    37    12    59 1   
    38    13    44 1   
    39    14    15 1   
    40    14    18 2   
    41    15    17 2   
    42    15    19 1   
    43    16    24 1   
    44    17    31 1   
    45    18    31 1   
    46    19    45 1   
    47    19    46 1   
    48    20    22 1   
    49    20    47 1   
    50    20    48 1   
    51    21    23 1   
    52    21    49 1   
    53    21    50 1   
    54    22    30 1   
    55    22    51 1   
    56    22    52 1   
    57    23    30 1   
    58    23    53 1   
    59    23    54 1   
    60    24    55 1   
    61    24    56 1   
    62    26    27 1   
    63    28    59 1   
    64    57    59 1   
    65    58    59 1   
@<TRIPOS>SUBSTRUCTURE
     1 8HM         1 TEMP              0 ****  ****    0 ROOT
