@<TRIPOS>MOLECULE
8HN
   52    56     1     0     0
SMALL
No Charge or Current Charge


@<TRIPOS>ATOM
      1 C1          -5.0360    -1.9140     0.4140 ca         1 8HN      -0.141000
      2 C2          -5.3510    -0.7160    -0.2470 ca         1 8HN      -0.034000
      3 C3          -4.3270     0.1550    -0.6630 ca         1 8HN      -0.099300
      4 N6          -6.6940    -0.3690    -0.5040 ns         1 8HN      -0.148000
      5 C7           1.0510    -1.6060     0.2380 cc         1 8HN      -0.353000
      6 C8           2.3000    -0.8990     0.3290 cc         1 8HN       0.695900
      7 C9           1.2380     0.8230     1.1540 cd         1 8HN       0.518500
      8 C10         -0.3210     2.1060     2.0220 cc         1 8HN       0.441500
      9 C11          1.0620     2.0300     1.7340 cc         1 8HN      -0.277300
     10 C12          2.0050     3.0320     2.0460 cg         1 8HN       0.353700
     11 C13          3.7340    -2.7660     0.7910 c5         1 8HN       0.216800
     12 C14          5.2390    -2.5180     1.0650 c5         1 8HN      -0.100400
     13 C15          5.7000    -1.9280    -0.2920 c5         1 8HN      -0.084400
     14 C16          4.5990    -0.8580    -0.5390 c5         1 8HN       0.260500
     15 C19         -4.6840     1.4790    -1.3480 c6         1 8HN      -0.025100
     16 C20         -6.0520     1.4180    -2.0800 c6         1 8HN      -0.160400
     17 C21         -7.1400     0.6760    -1.2880 c          1 8HN       0.570000
     18 O2          -8.3190     1.0040    -1.3350 o          1 8HN      -0.555000
     19 C4          -2.9830    -0.1800    -0.4070 ca         1 8HN      -0.084000
     20 C5          -2.6560    -1.3740     0.2660 ca         1 8HN       0.281000
     21 C           -3.6900    -2.2440     0.6600 ca         1 8HN      -0.095000
     22 N           -1.3270    -1.7450     0.5070 nu         1 8HN      -0.973000
     23 C6          -0.1470    -1.0390     0.5980 cd         1 8HN       0.386000
     24 N2          -0.0200     0.2660     1.1010 na         1 8HN       0.045900
     25 N3          -1.0340     1.0370     1.6710 nd         1 8HN      -0.603100
     26 N4           2.7600     3.8790     2.3180 n1         1 8HN      -0.492000
     27 N1           2.4680     0.3330     0.7850 nd         1 8HN      -0.744000
     28 N5           3.3960    -1.6200    -0.0910 nh         1 8HN      -0.757300
     29 O1           5.7980     1.5630    -2.1290 o          1 8HN      -0.733000
     30 O            6.6480    -0.2520    -2.9150 o          1 8HN      -0.733000
     31 H1          -5.8260    -2.5900     0.7320 ha         1 8HN       0.114000
     32 H2          -7.4000    -0.8990    -0.0100 hn         1 8HN       0.154000
     33 H3           1.0700    -2.6130    -0.1570 ha         1 8HN       0.127000
     34 H4          -0.8350     2.9280     2.5030 h4         1 8HN       0.041800
     35 H5           3.5750    -3.7170     0.2640 h1         1 8HN       0.036700
     36 H6           3.1510    -2.7880     1.7230 h1         1 8HN       0.036700
     37 H7           5.3830    -1.8010     1.8820 hc         1 8HN       0.042200
     38 H8           5.7710    -3.4370     1.3340 hc         1 8HN       0.042200
     39 H9           6.7030    -1.4920    -0.2410 hc         1 8HN       0.069700
     40 H10          5.7100    -2.6920    -1.0780 hc         1 8HN       0.069700
     41 H11          4.8050     0.0170     0.0970 h1         1 8HN       0.092700
     42 H12         -4.7160     2.2710    -0.5880 hc         1 8HN       0.065700
     43 H13         -3.8970     1.7680    -2.0590 hc         1 8HN       0.065700
     44 H14         -6.4140     2.3980    -2.4160 hc         1 8HN       0.073700
     45 H15         -5.8810     0.8040    -2.9740 hc         1 8HN       0.073700
     46 H16         -2.1930     0.4860    -0.7380 ha         1 8HN       0.132000
     47 H17         -3.4520    -3.1740     1.1680 ha         1 8HN       0.120000
     48 H18         -1.1840    -2.7520     0.5870 hn         1 8HN       0.490000
     49 H19          4.3430    -1.2780    -2.6250 hc         1 8HN       0.037200
     50 H20          3.6100     0.2930    -2.0260 hc         1 8HN       0.037200
     51 C17          4.4710    -0.3860    -2.0010 c3         1 8HN      -0.223400
     52 C18          5.7380     0.3720    -2.3920 c          1 8HN       0.724000
@<TRIPOS>BOND
     1     1     2 ar  
     2     1    21 ar  
     3     1    31 1   
     4     2     3 ar  
     5     2     4 1   
     6     3    15 1   
     7     3    19 ar  
     8     4    17 1   
     9     4    32 1   
    10     5     6 1   
    11     5    23 2   
    12     5    33 1   
    13     6    27 2   
    14     6    28 1   
    15     7     9 2   
    16     7    24 1   
    17     7    27 1   
    18     8     9 1   
    19     8    25 2   
    20     8    34 1   
    21     9    10 1   
    22    10    26 3   
    23    11    12 1   
    24    11    28 1   
    25    11    35 1   
    26    11    36 1   
    27    12    13 1   
    28    12    37 1   
    29    12    38 1   
    30    13    14 1   
    31    13    39 1   
    32    13    40 1   
    33    14    28 1   
    34    14    41 1   
    35    14    51 1   
    36    15    16 1   
    37    15    42 1   
    38    15    43 1   
    39    16    17 1   
    40    16    44 1   
    41    16    45 1   
    42    17    18 2   
    43    19    20 ar  
    44    19    46 1   
    45    20    21 ar  
    46    20    22 1   
    47    21    47 1   
    48    22    23 1   
    49    22    48 1   
    50    23    24 1   
    51    24    25 1   
    52    29    52 1   
    53    30    52 1   
    54    49    51 1   
    55    50    51 1   
    56    51    52 1   
@<TRIPOS>SUBSTRUCTURE
     1 8HN         1 TEMP              0 ****  ****    0 ROOT
