@<TRIPOS>MOLECULE
8HN
   52    56     1     0     0
SMALL
abcg2


@<TRIPOS>ATOM
      1 C1          -5.0050    -1.2660     1.1240 ca         1 8HN      -0.141000
      2 C2          -5.1520    -0.4270     0.0270 ca         1 8HN      -0.034000
      3 C3          -4.0310    -0.0100    -0.6920 ca         1 8HN      -0.099300
      4 N6          -6.4170     0.0220    -0.3600 ns         1 8HN      -0.148000
      5 C7           0.9700    -1.7100     0.5730 cc         1 8HN      -0.353000
      6 C8           2.1730    -0.9550     0.4380 cc         1 8HN       0.695900
      7 C9           1.0780     0.9190     1.0740 cd         1 8HN       0.518500
      8 C10         -0.5700     2.2020     1.8620 cc         1 8HN       0.441500
      9 C11          0.7780     2.2370     1.4480 cc         1 8HN      -0.277300
     10 C12          1.6610     3.3240     1.4260 cg         1 8HN       0.353700
     11 C13          3.5110    -2.9810     0.0140 c5         1 8HN       0.216800
     12 C14          4.9950    -3.1160     0.3220 c5         1 8HN      -0.100400
     13 C15          5.5980    -1.8980    -0.3650 c5         1 8HN      -0.084400
     14 C16          4.5480    -0.7900    -0.2170 c5         1 8HN       0.260500
     15 C19         -4.2490     0.9250    -1.8440 c6         1 8HN      -0.025100
     16 C20         -5.5640     0.6090    -2.5440 c6         1 8HN      -0.160400
     17 C21         -6.7230     0.5310    -1.5830 c          1 8HN       0.570000
     18 O2          -7.8600     0.8620    -1.8700 o          1 8HN      -0.555000
     19 C4          -2.7790    -0.4570    -0.3100 ca         1 8HN      -0.084000
     20 C5          -2.6220    -1.2750     0.8040 ca         1 8HN       0.281000
     21 C           -3.7410    -1.6760     1.5200 ca         1 8HN      -0.095000
     22 N           -1.3520    -1.7500     1.2040 nu         1 8HN      -0.973000
     23 C6          -0.1790    -1.0990     0.9970 cd         1 8HN       0.386000
     24 N2          -0.1000     0.2380     1.2670 na         1 8HN       0.045900
     25 N3          -1.0950     1.0090     1.7630 nd         1 8HN      -0.603100
     26 N4           2.3870     4.2240     1.4090 n1         1 8HN      -0.492000
     27 N1           2.1990     0.3590     0.6700 nd         1 8HN      -0.744000
     28 N5           3.3080    -1.5400     0.0480 nh         1 8HN      -0.757300
     29 O1           6.5450     1.0430    -0.8410 o          1 8HN      -0.733000
     30 O            5.7630     1.4330    -2.8900 o          1 8HN      -0.733000
     31 H1          -5.8740    -1.5920     1.6810 ha         1 8HN       0.114000
     32 H2          -7.1870    -0.1290     0.2780 hn         1 8HN       0.154000
     33 H3           0.9240    -2.7530     0.2990 ha         1 8HN       0.127000
     34 H4          -1.1570     3.0270     2.2360 h4         1 8HN       0.041800
     35 H5           3.2660    -3.3920    -0.9710 h1         1 8HN       0.036700
     36 H6           2.8890    -3.4850     0.7520 h1         1 8HN       0.036700
     37 H7           5.1490    -3.0700     1.4020 hc         1 8HN       0.042200
     38 H8           5.4060    -4.0600    -0.0360 hc         1 8HN       0.042200
     39 H9           6.5560    -1.5970     0.0530 hc         1 8HN       0.069700
     40 H10          5.7610    -2.1140    -1.4250 hc         1 8HN       0.069700
     41 H11          4.7670    -0.1660     0.6520 h1         1 8HN       0.092700
     42 H12         -4.2700     1.9550    -1.4740 hc         1 8HN       0.065700
     43 H13         -3.4230     0.8650    -2.5530 hc         1 8HN       0.065700
     44 H14         -5.7940     1.3490    -3.3090 hc         1 8HN       0.073700
     45 H15         -5.4960    -0.3620    -3.0480 hc         1 8HN       0.073700
     46 H16         -1.9170    -0.1570    -0.8960 ha         1 8HN       0.132000
     47 H17         -3.6310    -2.3140     2.3860 ha         1 8HN       0.120000
     48 H18         -1.2580    -2.7550     1.2260 hn         1 8HN       0.490000
     49 H19          4.2090    -0.5380    -2.3240 hc         1 8HN       0.037200
     50 H20          3.6070     0.7830    -1.3470 hc         1 8HN       0.037200
     51 C17          4.4440     0.0880    -1.4560 c3         1 8HN      -0.223400
     52 C18          5.7040     0.9200    -1.7540 c          1 8HN       0.724000
@<TRIPOS>BOND
     1     1     2 ar  
     2     1    21 ar  
     3     1    31 1   
     4     2     3 ar  
     5     2     4 1   
     6     3    15 1   
     7     3    19 ar  
     8     4    17 1   
     9     4    32 1   
    10     5     6 1   
    11     5    23 2   
    12     5    33 1   
    13     6    27 2   
    14     6    28 1   
    15     7     9 2   
    16     7    24 1   
    17     7    27 1   
    18     8     9 1   
    19     8    25 2   
    20     8    34 1   
    21     9    10 1   
    22    10    26 3   
    23    11    12 1   
    24    11    28 1   
    25    11    35 1   
    26    11    36 1   
    27    12    13 1   
    28    12    37 1   
    29    12    38 1   
    30    13    14 1   
    31    13    39 1   
    32    13    40 1   
    33    14    28 1   
    34    14    41 1   
    35    14    51 1   
    36    15    16 1   
    37    15    42 1   
    38    15    43 1   
    39    16    17 1   
    40    16    44 1   
    41    16    45 1   
    42    17    18 2   
    43    19    20 ar  
    44    19    46 1   
    45    20    21 ar  
    46    20    22 1   
    47    21    47 1   
    48    22    23 1   
    49    22    48 1   
    50    23    24 1   
    51    24    25 1   
    52    29    52 1   
    53    30    52 1   
    54    49    51 1   
    55    50    51 1   
    56    51    52 1   
@<TRIPOS>SUBSTRUCTURE
     1 8HN         1 TEMP              0 ****  ****    0 ROOT
