@<TRIPOS>MOLECULE
8HO
   41    43     1     0     0
SMALL
bcc


@<TRIPOS>ATOM
      1 C            0.7240     2.7010     1.1800 c3         1 8HO      -0.138400
      2 N            1.9550     0.7570     0.4930 nb         1 8HO      -0.608000
      3 O3           6.1230     1.7550     0.5870 o          1 8HO      -0.827800
      4 C18          6.7150     0.7130     0.2490 c          1 8HO       0.924600
      5 O4           7.9410     0.5290     0.1560 o          1 8HO      -0.827800
      6 C17          5.8410    -0.5090    -0.1040 c3         1 8HO      -0.067000
      7 N1           4.4460    -0.1990     0.0650 ns         1 8HO      -0.461900
      8 C16          3.4510    -1.0400    -0.1570 c          1 8HO       0.556600
      9 O2           3.6200    -2.2150    -0.5400 o          1 8HO      -0.709100
     10 C2           2.0840    -0.5220     0.0710 ca         1 8HO       0.221800
     11 C3           1.0000    -1.3480    -0.1520 ca         1 8HO       0.127800
     12 O1           1.1150    -2.6030    -0.5660 oh         1 8HO      -0.527100
     13 C4          -0.3020    -0.8180     0.0750 ca         1 8HO      -0.083000
     14 C9          -1.4700    -1.5810    -0.1240 ca         1 8HO      -0.060000
     15 C8          -2.7040    -1.0380     0.1050 ca         1 8HO      -0.192000
     16 C7          -2.8100     0.2970     0.5410 ca         1 8HO       0.119100
     17 C6          -1.6890     1.0630     0.7420 ca         1 8HO      -0.143000
     18 C5          -0.4120     0.5170     0.5190 ca         1 8HO      -0.091300
     19 C1           0.7880     1.2790     0.7150 ca         1 8HO       0.385600
     20 C10         -5.1000     0.5710     0.0420 ca         1 8HO       0.123100
     21 C15         -5.0190     0.6230    -1.3450 ca         1 8HO      -0.155000
     22 C14         -6.1590     0.3770    -2.0980 ca         1 8HO      -0.111500
     23 C13         -7.3680     0.0910    -1.4770 ca         1 8HO      -0.150000
     24 C12         -7.4340     0.0510    -0.0910 ca         1 8HO      -0.111500
     25 C11         -6.3000     0.2850     0.6750 ca         1 8HO      -0.155000
     26 H1           0.1760     3.3290     0.4750 hc         1 8HO       0.049033
     27 H2           0.2210     2.7870     2.1450 hc         1 8HO       0.049033
     28 H3           1.7300     3.1030     1.2840 hc         1 8HO       0.049033
     29 H5           6.0490    -0.8080    -1.1360 h1         1 8HO       0.041200
     30 H6           6.1330    -1.3520     0.5280 h1         1 8HO       0.041200
     31 H7           4.2320     0.7420     0.3730 hn         1 8HO       0.368500
     32 H8           2.0950    -2.7680    -0.6540 ho         1 8HO       0.502000
     33 H9          -1.3970    -2.6090    -0.4520 ha         1 8HO       0.150000
     34 H10         -3.5930    -1.6400    -0.0370 ha         1 8HO       0.139000
     35 H11         -1.8000     2.0860     1.0750 ha         1 8HO       0.148000
     36 H12         -4.0840     0.8590    -1.8370 ha         1 8HO       0.147500
     37 H13         -6.0980     0.4160    -3.1770 ha         1 8HO       0.129500
     38 H14         -8.2530    -0.0980    -2.0710 ha         1 8HO       0.128000
     39 H15         -8.3710    -0.1720     0.4020 ha         1 8HO       0.129500
     40 H16         -6.3460     0.2490     1.7560 ha         1 8HO       0.147500
     41 O           -4.0160     0.8540     0.8330 os         1 8HO      -0.258200
@<TRIPOS>BOND
     1     1    19 1   
     2     1    26 1   
     3     1    27 1   
     4     1    28 1   
     5     2    10 ar  
     6     2    19 ar  
     7     3     4 1   
     8     4     5 1   
     9     4     6 1   
    10     6     7 1   
    11     6    29 1   
    12     6    30 1   
    13     7     8 1   
    14     7    31 1   
    15     8     9 2   
    16     8    10 1   
    17    10    11 ar  
    18    11    12 1   
    19    11    13 ar  
    20    12    32 1   
    21    13    14 ar  
    22    13    18 ar  
    23    14    15 ar  
    24    14    33 1   
    25    15    16 ar  
    26    15    34 1   
    27    16    17 ar  
    28    16    41 1   
    29    17    18 ar  
    30    17    35 1   
    31    18    19 ar  
    32    20    21 ar  
    33    20    25 ar  
    34    20    41 1   
    35    21    22 ar  
    36    21    36 1   
    37    22    23 ar  
    38    22    37 1   
    39    23    24 ar  
    40    23    38 1   
    41    24    25 ar  
    42    24    39 1   
    43    25    40 1   
@<TRIPOS>SUBSTRUCTURE
     1 8HO         1 TEMP              0 ****  ****    0 ROOT
