@<TRIPOS>MOLECULE
8HO
   41    43     1     0     0
SMALL
No Charge or Current Charge


@<TRIPOS>ATOM
      1 C            0.7270     2.7150     1.2210 c3         1 8HO      -0.138400
      2 N            1.9980     0.7870     0.4840 nb         1 8HO      -0.608000
      3 O3           6.4740     1.8140     0.3690 o          1 8HO      -0.722500
      4 C18          6.9020     0.6680     0.3690 c          1 8HO       0.714000
      5 O4           7.9890     0.3540     0.8330 o          1 8HO      -0.722500
      6 C17          5.9970    -0.4600    -0.1930 c3         1 8HO      -0.067000
      7 N1           4.5600    -0.1650     0.0050 ns         1 8HO      -0.394900
      8 C16          3.5240    -1.0420    -0.2350 c          1 8HO       0.489600
      9 O2           3.7240    -2.1870    -0.6390 o          1 8HO      -0.709100
     10 C2           2.1230    -0.4960     0.0350 ca         1 8HO       0.156500
     11 C3           0.9980    -1.3340    -0.1870 ca         1 8HO       0.193100
     12 O1           1.1680    -2.6210    -0.6380 oh         1 8HO      -0.566100
     13 C4          -0.2960    -0.8240     0.0640 ca         1 8HO      -0.083000
     14 C9          -1.4530    -1.6100    -0.1340 ca         1 8HO      -0.042000
     15 C8          -2.7250    -1.0740     0.1240 ca         1 8HO      -0.174000
     16 C7          -2.8510     0.2520     0.5730 ca         1 8HO       0.119100
     17 C6          -1.7070     1.0350     0.7850 ca         1 8HO      -0.125000
     18 C5          -0.4200     0.5080     0.5290 ca         1 8HO      -0.026000
     19 C1           0.7590     1.2750     0.7240 ca         1 8HO       0.320300
     20 C10         -5.1980     0.5540     0.0660 ca         1 8HO       0.123100
     21 C15         -5.0990     0.4620    -1.3370 ca         1 8HO      -0.137000
     22 C14         -6.2510     0.2320    -2.1090 ca         1 8HO      -0.093500
     23 C13         -7.5030     0.1020    -1.4820 ca         1 8HO      -0.132000
     24 C12         -7.6040     0.2070    -0.0840 ca         1 8HO      -0.093500
     25 C11         -6.4520     0.4370     0.6880 ca         1 8HO      -0.137000
     26 H1           0.1590     3.3520     0.5330 hc         1 8HO       0.049033
     27 H2           0.2580     2.7760     2.2100 hc         1 8HO       0.049033
     28 H3           1.7330     3.1420     1.3080 hc         1 8HO       0.049033
     29 H5           6.2000    -0.5660    -1.2660 h1         1 8HO       0.041200
     30 H6           6.2450    -1.4010     0.3130 h1         1 8HO       0.041200
     31 H7           4.2900     0.7610     0.3270 hn         1 8HO       0.368500
     32 H8           2.1580    -2.7410    -0.7380 ho         1 8HO       0.541000
     33 H9          -1.3750    -2.6370    -0.4850 ha         1 8HO       0.132000
     34 H10         -3.6080    -1.6910    -0.0220 ha         1 8HO       0.121000
     35 H11         -1.8370     2.0510     1.1440 ha         1 8HO       0.130000
     36 H12         -4.1350     0.5730    -1.8280 ha         1 8HO       0.129500
     37 H13         -6.1750     0.1580    -3.1920 ha         1 8HO       0.111500
     38 H14         -8.3940    -0.0750    -2.0800 ha         1 8HO       0.110000
     39 H15         -8.5740     0.1110     0.4010 ha         1 8HO       0.111500
     40 H16         -6.5280     0.5200     1.7700 ha         1 8HO       0.129500
     41 O           -4.0870     0.7930     0.8450 os         1 8HO      -0.258200
@<TRIPOS>BOND
     1     1    19 1   
     2     1    26 1   
     3     1    27 1   
     4     1    28 1   
     5     2    10 ar  
     6     2    19 ar  
     7     3     4 1   
     8     4     5 1   
     9     4     6 1   
    10     6     7 1   
    11     6    29 1   
    12     6    30 1   
    13     7     8 1   
    14     7    31 1   
    15     8     9 2   
    16     8    10 1   
    17    10    11 ar  
    18    11    12 1   
    19    11    13 ar  
    20    12    32 1   
    21    13    14 ar  
    22    13    18 ar  
    23    14    15 ar  
    24    14    33 1   
    25    15    16 ar  
    26    15    34 1   
    27    16    17 ar  
    28    16    41 1   
    29    17    18 ar  
    30    17    35 1   
    31    18    19 ar  
    32    20    21 ar  
    33    20    25 ar  
    34    20    41 1   
    35    21    22 ar  
    36    21    36 1   
    37    22    23 ar  
    38    22    37 1   
    39    23    24 ar  
    40    23    38 1   
    41    24    25 ar  
    42    24    39 1   
    43    25    40 1   
@<TRIPOS>SUBSTRUCTURE
     1 8HO         1 TEMP              0 ****  ****    0 ROOT
