@<TRIPOS>MOLECULE
8HP
   40    44     1     0     0
SMALL
No Charge or Current Charge


@<TRIPOS>ATOM
      1 C4          -2.7990    -1.2730     1.4520 ca         1 8HP      -0.081500
      2 C5          -2.3230     0.0080     1.1060 ca         1 8HP      -0.123300
      3 C6          -1.2680     0.6970     1.9680 c3         1 8HP       0.145300
      4 C8           0.1470     2.4770     0.8980 c          1 8HP       0.593800
      5 C15          2.0050     0.5020     0.0650 cc         1 8HP      -0.225500
      6 C17          4.0880    -0.5920    -1.0430 c6         1 8HP      -0.016100
      7 C20          2.8370    -3.1880    -0.0160 c6         1 8HP      -0.000100
      8 C21          2.2300    -1.8190     0.2000 cd         1 8HP      -0.218300
      9 C24         -2.8320     0.6480    -0.0430 ca         1 8HP      -0.081500
     10 C3          -3.7650    -1.9100     0.6530 ca         1 8HP      -0.103000
     11 C25         -3.7980     0.0100    -0.8400 ca         1 8HP      -0.103000
     12 C12          2.9220     3.7710    -0.9420 cd         1 8HP       0.536900
     13 C16          2.7920    -0.6460    -0.2570 cc         1 8HP      -0.016300
     14 C2          -4.2620    -1.2680    -0.4930 ca         1 8HP       0.130000
     15 C23          0.8850     0.1830     0.7720 cd         1 8HP      -0.047400
     16 C14          2.2480     1.8810    -0.2700 cc         1 8HP       0.553000
     17 C18          4.8500    -1.9430    -0.9720 c6         1 8HP      -0.074400
     18 C19          3.8950    -3.1500    -1.1470 c6         1 8HP      -0.071400
     19 N13          3.2490     2.4160    -0.9490 nd         1 8HP      -0.693000
     20 N11          1.7870     3.9930    -0.2910 nc         1 8HP      -0.486800
     21 N10          1.3150     2.7930     0.1610 n          1 8HP      -0.057500
     22 N7          -0.0590     1.1080     1.2090 n          1 8HP      -0.271000
     23 S22          0.7080    -1.5530     1.0800 ss         1 8HP       0.227000
     24 Cl1         -5.4700    -2.0660    -1.4920 cl         1 8HP      -0.195000
     25 H1          -2.4210    -1.7800     2.3380 ha         1 8HP       0.123500
     26 H2          -1.7290     1.5660     2.4550 h1         1 8HP       0.082700
     27 H3          -0.9580     0.0280     2.7810 h1         1 8HP       0.082700
     28 H4           3.8740    -0.3500    -2.0930 hc         1 8HP       0.068200
     29 H5           4.7470     0.2020    -0.6690 hc         1 8HP       0.068200
     30 H6           3.3090    -3.5340     0.9140 hc         1 8HP       0.051700
     31 H7           2.0600    -3.9260    -0.2610 hc         1 8HP       0.051700
     32 H8          -2.4790     1.6390    -0.3200 ha         1 8HP       0.123500
     33 H9          -4.1280    -2.8990     0.9210 ha         1 8HP       0.134000
     34 H10         -4.1860     0.5050    -1.7270 ha         1 8HP       0.134000
     35 H11          3.5320     4.5320    -1.4150 h5         1 8HP       0.068100
     36 H12          5.6350    -1.9670    -1.7400 hc         1 8HP       0.045200
     37 H13          5.3620    -2.0240    -0.0030 hc         1 8HP       0.045200
     38 H14          4.4670    -4.0880    -1.1540 hc         1 8HP       0.045700
     39 H15          3.3920    -3.0820    -2.1210 hc         1 8HP       0.045700
     40 O9          -0.6440     3.3500     1.2410 o          1 8HP      -0.493000
@<TRIPOS>BOND
     1     1     2 ar  
     2     1    10 ar  
     3     1    25 1   
     4     2     3 1   
     5     2     9 ar  
     6     3    22 1   
     7     3    26 1   
     8     3    27 1   
     9     4    21 1   
    10     4    22 1   
    11     4    40 2   
    12     5    13 1   
    13     5    15 2   
    14     5    16 1   
    15     6    13 1   
    16     6    17 1   
    17     6    28 1   
    18     6    29 1   
    19     7     8 1   
    20     7    18 1   
    21     7    30 1   
    22     7    31 1   
    23     8    13 2   
    24     8    23 1   
    25     9    11 ar  
    26     9    32 1   
    27    10    14 ar  
    28    10    33 1   
    29    11    14 ar  
    30    11    34 1   
    31    12    19 1   
    32    12    20 2   
    33    12    35 1   
    34    14    24 1   
    35    15    22 1   
    36    15    23 1   
    37    16    19 2   
    38    16    21 1   
    39    17    18 1   
    40    17    36 1   
    41    17    37 1   
    42    18    38 1   
    43    18    39 1   
    44    20    21 1   
@<TRIPOS>SUBSTRUCTURE
     1 8HP         1 TEMP              0 ****  ****    0 ROOT
