@<TRIPOS>MOLECULE
8HP
   40    44     1     0     0
SMALL
abcg2


@<TRIPOS>ATOM
      1 C4          -2.6870    -1.2600     1.3960 ca         1 8HP      -0.081500
      2 C5          -2.2300     0.0100     1.0640 ca         1 8HP      -0.123300
      3 C6          -1.1960     0.6940     1.9190 c3         1 8HP       0.145300
      4 C8           0.1210     2.4680     0.8810 c          1 8HP       0.593800
      5 C15          2.0140     0.4960    -0.0000 cc         1 8HP      -0.225500
      6 C17          4.0850    -0.6650    -1.0830 c6         1 8HP      -0.016100
      7 C20          2.7830    -3.1740     0.0150 c6         1 8HP      -0.000100
      8 C21          2.2340    -1.7930     0.1660 cd         1 8HP      -0.218300
      9 C24         -2.7660     0.6460    -0.0530 ca         1 8HP      -0.081500
     10 C3          -3.6560    -1.8940     0.6320 ca         1 8HP      -0.103000
     11 C25         -3.7300     0.0260    -0.8300 ca         1 8HP      -0.103000
     12 C12          2.7450     3.8160    -0.8230 cd         1 8HP       0.536900
     13 C16          2.8000    -0.6570    -0.3140 cc         1 8HP      -0.016300
     14 C2          -4.1660    -1.2440    -0.4790 ca         1 8HP       0.130000
     15 C23          0.8790     0.1970     0.7120 cd         1 8HP      -0.047400
     16 C14          2.2200     1.8700    -0.2850 cc         1 8HP       0.553000
     17 C18          4.8000    -2.0090    -0.9480 c6         1 8HP      -0.074400
     18 C19          3.8360    -3.1810    -1.0920 c6         1 8HP      -0.071400
     19 N13          3.1590     2.5290    -0.9180 nd         1 8HP      -0.693000
     20 N11          1.6230     4.0050    -0.1820 nc         1 8HP      -0.486800
     21 N10          1.2810     2.7520     0.1680 n          1 8HP      -0.057500
     22 N7          -0.0300     1.1290     1.1520 n          1 8HP      -0.271000
     23 S22          0.7410    -1.4900     1.0030 ss         1 8HP       0.227000
     24 CL1         -5.3700    -2.0260    -1.4480 cl         1 8HP      -0.195000
     25 H1          -2.2860    -1.7720     2.2620 ha         1 8HP       0.123500
     26 H2          -1.6190     1.5710     2.4040 h1         1 8HP       0.082700
     27 H3          -0.8510     0.0340     2.7180 h1         1 8HP       0.082700
     28 H4           3.8730    -0.4530    -2.1360 hc         1 8HP       0.068200
     29 H5           4.7320     0.1450    -0.7400 hc         1 8HP       0.068200
     30 H6           3.2260    -3.5020     0.9600 hc         1 8HP       0.051700
     31 H7           1.9860    -3.8850    -0.2150 hc         1 8HP       0.051700
     32 H8          -2.4440     1.6440    -0.3250 ha         1 8HP       0.123500
     33 H9          -3.9990    -2.8840     0.8980 ha         1 8HP       0.134000
     34 H10         -4.1400     0.5300    -1.6940 ha         1 8HP       0.134000
     35 H11          3.3010     4.6400    -1.2430 h5         1 8HP       0.068100
     36 H12          5.5890    -2.0750    -1.6980 hc         1 8HP       0.045200
     37 H13          5.2920    -2.0620     0.0280 hc         1 8HP       0.045200
     38 H14          4.3800    -4.1260    -1.0660 hc         1 8HP       0.045700
     39 H15          3.3390    -3.1290    -2.0650 hc         1 8HP       0.045700
     40 O9          -0.6570     3.3290     1.2140 o          1 8HP      -0.493000
@<TRIPOS>BOND
     1     1     2 ar  
     2     1    10 ar  
     3     1    25 1   
     4     2     3 1   
     5     2     9 ar  
     6     3    22 1   
     7     3    26 1   
     8     3    27 1   
     9     4    21 1   
    10     4    22 1   
    11     4    40 2   
    12     5    13 1   
    13     5    15 2   
    14     5    16 1   
    15     6    13 1   
    16     6    17 1   
    17     6    28 1   
    18     6    29 1   
    19     7     8 1   
    20     7    18 1   
    21     7    30 1   
    22     7    31 1   
    23     8    13 2   
    24     8    23 1   
    25     9    11 ar  
    26     9    32 1   
    27    10    14 ar  
    28    10    33 1   
    29    11    14 ar  
    30    11    34 1   
    31    12    19 1   
    32    12    20 2   
    33    12    35 1   
    34    14    24 1   
    35    15    22 1   
    36    15    23 1   
    37    16    19 2   
    38    16    21 1   
    39    17    18 1   
    40    17    36 1   
    41    17    37 1   
    42    18    38 1   
    43    18    39 1   
    44    20    21 1   
@<TRIPOS>SUBSTRUCTURE
     1 8HP         1 TEMP              0 ****  ****    0 ROOT
