@<TRIPOS>MOLECULE
8HQ
   20    21     1     0     0
SMALL
bcc


@<TRIPOS>ATOM
      1 OAB          2.7740     1.3370    -0.6580 o          1 8HQ      -0.811800
      2 OAA          3.4850    -0.2490     0.7420 o          1 8HQ      -0.811800
      3 OAC         -3.5210    -0.5910    -0.1380 oh         1 8HQ      -0.515100
      4 CAD          1.2180    -1.7400    -0.0620 ca         1 8HQ      -0.252300
      5 CAE         -0.0150    -2.4080    -0.1530 ca         1 8HQ       0.409200
      6 CAF         -2.5240     1.5510    -0.0020 ca         1 8HQ      -0.192000
      7 CAG         -1.3460     2.3200     0.0590 ca         1 8HQ      -0.138000
      8 CAH          1.2660    -0.3680    -0.0200 ca         1 8HQ      -0.072600
      9 NAI         -1.1630    -1.7850    -0.1660 nb         1 8HQ      -0.742000
     10 CAK         -2.4310     0.1860    -0.0800 ca         1 8HQ       0.072800
     11 CAL         -0.1010     1.7510     0.0380 ca         1 8HQ      -0.100000
     12 CA0          2.6340     0.3120     0.0320 c          1 8HQ       0.925200
     13 CAM          0.0310     0.3420    -0.0400 ca         1 8HQ      -0.085300
     14 CAN         -1.1500    -0.4380    -0.0960 ca         1 8HQ       0.311600
     15 HAD          2.1280    -2.3230    -0.0310 ha         1 8HQ       0.149000
     16 HAE         -0.0390    -3.4910    -0.2090 h4         1 8HQ      -0.006900
     17 HAF         -3.4930     2.0330     0.0150 ha         1 8HQ       0.124000
     18 HAG         -1.4370     3.3970     0.1210 ha         1 8HQ       0.114000
     19 HAL          0.7800     2.3710     0.0750 ha         1 8HQ       0.172000
     20 HOC         -3.2080    -1.5100    -0.1790 ho         1 8HQ       0.450000
@<TRIPOS>BOND
     1     1    12 1   
     2     2    12 1   
     3     3    10 1   
     4     3    20 1   
     5     4     5 ar  
     6     4     8 ar  
     7     4    15 1   
     8     5     9 ar  
     9     5    16 1   
    10     6     7 ar  
    11     6    10 ar  
    12     6    17 1   
    13     7    11 ar  
    14     7    18 1   
    15     8    12 1   
    16     8    13 ar  
    17     9    14 ar  
    18    10    14 ar  
    19    11    13 ar  
    20    11    19 1   
    21    13    14 ar  
@<TRIPOS>SUBSTRUCTURE
     1 8HQ         1 TEMP              0 ****  ****    0 ROOT
