@<TRIPOS>MOLECULE
8HQ
   20    21     1     0     0
SMALL
No Charge or Current Charge


@<TRIPOS>ATOM
      1 OAB          2.8500     1.1500    -0.8700 o          1 8HQ      -0.706500
      2 OAA          3.3590     0.0670     0.9220 o          1 8HQ      -0.706500
      3 OAC         -3.5800    -0.5490    -0.1510 oh         1 8HQ      -0.554100
      4 CAD          1.2490    -1.7780    -0.0950 ca         1 8HQ      -0.169000
      5 CAE          0.0310    -2.4650    -0.1610 ca         1 8HQ       0.343900
      6 CAF         -2.5130     1.5880     0.0040 ca         1 8HQ      -0.174000
      7 CAG         -1.3370     2.3470     0.0850 ca         1 8HQ      -0.120000
      8 CAH          1.2580    -0.3690    -0.0310 ca         1 8HQ      -0.072600
      9 NAI         -1.1660    -1.8380    -0.1620 nb         1 8HQ      -0.742000
     10 CAK         -2.4350     0.1910    -0.0800 ca         1 8HQ       0.138100
     11 CAL         -0.0860     1.7090     0.0750 ca         1 8HQ      -0.082000
     12 CA0          2.5820     0.3590     0.0240 c          1 8HQ       0.714600
     13 CAM          0.0060     0.2990    -0.0200 ca         1 8HQ      -0.020000
     14 CAN         -1.1860    -0.4770    -0.0900 ca         1 8HQ       0.181000
     15 HAD          2.1800    -2.3370    -0.1020 ha         1 8HQ       0.131000
     16 HAE          0.0080    -3.5530    -0.2170 h4         1 8HQ      -0.006900
     17 HAF         -3.4820     2.0810     0.0120 ha         1 8HQ       0.106000
     18 HAG         -1.3930     3.4310     0.1560 ha         1 8HQ       0.096000
     19 HAL          0.8070     2.3250     0.1460 ha         1 8HQ       0.154000
     20 HOC         -3.2610    -1.4820    -0.1970 ho         1 8HQ       0.489000
@<TRIPOS>BOND
     1     1    12 1   
     2     2    12 1   
     3     3    10 1   
     4     3    20 1   
     5     4     5 ar  
     6     4     8 ar  
     7     4    15 1   
     8     5     9 ar  
     9     5    16 1   
    10     6     7 ar  
    11     6    10 ar  
    12     6    17 1   
    13     7    11 ar  
    14     7    18 1   
    15     8    12 1   
    16     8    13 ar  
    17     9    14 ar  
    18    10    14 ar  
    19    11    13 ar  
    20    11    19 1   
    21    13    14 ar  
@<TRIPOS>SUBSTRUCTURE
     1 8HQ         1 TEMP              0 ****  ****    0 ROOT
