@<TRIPOS>MOLECULE
8HR
   55    58     1     0     0
SMALL
No Charge or Current Charge


@<TRIPOS>ATOM
      1 CAA         -2.3720     0.5840    -0.1860 ca         1 8HR       0.275000
      2 CAB         -2.7960     1.7250     0.5380 ca         1 8HR      -0.069000
      3 CAC         -1.9000     2.7950     0.7520 ca         1 8HR      -0.088000
      4 CAD         -0.5870     2.7300     0.2590 ca         1 8HR      -0.071000
      5 CAE         -0.1400     1.5920    -0.4390 ca         1 8HR      -0.128600
      6 CAF         -1.0520     0.5370    -0.6710 ca         1 8HR      -0.058000
      7 CAH         -4.4740    -0.4360     0.0250 cp         1 8HR       0.437500
      8 CAI         -4.9590     0.6640     0.7640 ca         1 8HR      -0.146000
      9 CAJ         -4.1200     1.7530     1.0220 ca         1 8HR       0.159000
     10 CAK         -5.3240    -1.6410    -0.2880 cp         1 8HR      -0.158500
     11 CAL          1.2720     1.5550    -0.9820 c          1 8HR       0.618700
     12 CAO          1.7690    -0.7980    -0.1510 c6         1 8HR       0.073500
     13 CAP          2.9830    -0.8830     0.8090 c6         1 8HR       0.087000
     14 CAR          4.4190     0.1290    -1.0300 c6         1 8HR       0.087000
     15 CAS          3.1560     0.1540    -1.9240 c6         1 8HR       0.073500
     16 CAT          5.4740    -1.1200     0.9040 c          1 8HR       0.652100
     17 CAW          7.8770    -1.0550     0.9220 c3         1 8HR       0.183600
     18 CAX          9.0090    -0.5380     0.0130 c3         1 8HR      -0.085400
     19 CAY         10.4140    -0.7990     0.5910 c3         1 8HR      -0.090100
     20 CAZ         -4.7370    -2.9040    -0.5800 ca         1 8HR      -0.078000
     21 CBA         -5.5280    -4.0290    -0.8710 ca         1 8HR      -0.118000
     22 CBB         -6.9270    -3.9230    -0.8810 ca         1 8HR      -0.093000
     23 CBC         -7.5330    -2.6890    -0.6040 ca         1 8HR      -0.118000
     24 CBD         -6.7450    -1.5630    -0.3120 ca         1 8HR      -0.078000
     25 NAG         -3.2000    -0.4580    -0.4250 nb         1 8HR      -0.666000
     26 NAM          1.9130     0.3030    -1.1350 n          1 8HR      -0.409800
     27 NAQ          4.3270    -0.7680     0.1660 n          1 8HR      -0.408800
     28 OAN          1.8170     2.5840    -1.3650 o          1 8HR      -0.590100
     29 OAU          5.4310    -1.6940     1.9830 o          1 8HR      -0.545000
     30 OAV          6.6310    -0.7510     0.2740 os         1 8HR      -0.463100
     31 H1          -2.2060     3.6840     1.2970 ha         1 8HR       0.132000
     32 H2           0.0880     3.5660     0.4310 ha         1 8HR       0.133000
     33 H3          -0.7470    -0.3300    -1.2500 ha         1 8HR       0.138000
     34 H4          -5.9720     0.6700     1.1480 ha         1 8HR       0.141000
     35 Cl1         -4.7610     3.1130     1.9470 cl         1 8HR      -0.181000
     36 H6           1.6790    -1.7480    -0.6970 h1         1 8HR       0.066950
     37 H7           0.8620    -0.6860     0.4560 h1         1 8HR       0.066950
     38 H8           2.8930    -0.0740     1.5490 h1         1 8HR       0.069450
     39 H9           2.9190    -1.8290     1.3650 h1         1 8HR       0.069450
     40 H10          5.2700    -0.1680    -1.6590 h1         1 8HR       0.069450
     41 H11          4.6180     1.1510    -0.6780 h1         1 8HR       0.069450
     42 H12          3.2450     0.9590    -2.6670 h1         1 8HR       0.066950
     43 H13          3.1020    -0.7900    -2.4840 h1         1 8HR       0.066950
     44 H14          7.9880    -2.1380     1.0680 h1         1 8HR       0.050700
     45 H15          7.9380    -0.5620     1.9020 h1         1 8HR       0.050700
     46 H16          8.9300    -1.0200    -0.9690 hc         1 8HR       0.052200
     47 H17          8.8810     0.5400    -0.1440 hc         1 8HR       0.052200
     48 H18         10.5330    -0.3020     1.5620 hc         1 8HR       0.037700
     49 H19         10.5830    -1.8740     0.7300 hc         1 8HR       0.037700
     50 H20         11.1850    -0.4160    -0.0880 hc         1 8HR       0.037700
     51 H21         -3.6550    -3.0190    -0.5740 ha         1 8HR       0.122000
     52 H22         -5.0540    -4.9850    -1.0870 ha         1 8HR       0.115500
     53 H23         -7.5390    -4.7940    -1.1070 ha         1 8HR       0.115000
     54 H24         -8.6180    -2.6030    -0.6180 ha         1 8HR       0.115500
     55 H25         -7.2500    -0.6190    -0.1200 ha         1 8HR       0.122000
@<TRIPOS>BOND
     1     1     2 ar  
     2     1     6 ar  
     3     1    25 ar  
     4     2     3 ar  
     5     2     9 ar  
     6     3     4 ar  
     7     3    31 1   
     8     4     5 ar  
     9     4    32 1   
    10     5     6 ar  
    11     5    11 1   
    12     6    33 1   
    13     7     8 ar  
    14     7    10 1   
    15     7    25 ar  
    16     8     9 ar  
    17     8    34 1   
    18     9    35 1   
    19    10    20 ar  
    20    10    24 ar  
    21    11    26 1   
    22    11    28 2   
    23    12    13 1   
    24    12    26 1   
    25    12    36 1   
    26    12    37 1   
    27    13    27 1   
    28    13    38 1   
    29    13    39 1   
    30    14    15 1   
    31    14    27 1   
    32    14    40 1   
    33    14    41 1   
    34    15    26 1   
    35    15    42 1   
    36    15    43 1   
    37    16    27 1   
    38    16    29 2   
    39    16    30 1   
    40    17    18 1   
    41    17    30 1   
    42    17    44 1   
    43    17    45 1   
    44    18    19 1   
    45    18    46 1   
    46    18    47 1   
    47    19    48 1   
    48    19    49 1   
    49    19    50 1   
    50    20    21 ar  
    51    20    51 1   
    52    21    22 ar  
    53    21    52 1   
    54    22    23 ar  
    55    22    53 1   
    56    23    24 ar  
    57    23    54 1   
    58    24    55 1   
@<TRIPOS>SUBSTRUCTURE
     1 8HR         1 TEMP              0 ****  ****    0 ROOT
