@<TRIPOS>MOLECULE
8HR
   55    58     1     0     0
SMALL
abcg2


@<TRIPOS>ATOM
      1 CAA         -2.3170     0.5990    -0.3340 ca         1 8HR       0.275000
      2 CAB         -2.9150     1.7490     0.2390 ca         1 8HR      -0.069000
      3 CAC         -2.1520     2.9260     0.3820 ca         1 8HR      -0.088000
      4 CAD         -0.8500     2.9600    -0.0290 ca         1 8HR      -0.071000
      5 CAE         -0.2370     1.8100    -0.5750 ca         1 8HR      -0.128600
      6 CAF         -0.9630     0.6600    -0.7340 ca         1 8HR      -0.058000
      7 CAH         -4.2250    -0.6610    -0.1380 cp         1 8HR       0.437500
      8 CAI         -4.9200     0.4230     0.4580 ca         1 8HR      -0.146000
      9 CAJ         -4.2660     1.6040     0.6350 ca         1 8HR       0.159000
     10 CAK         -4.8970    -1.9630    -0.3350 cp         1 8HR      -0.158500
     11 CAL          1.1610     1.9370    -1.0980 c          1 8HR       0.618700
     12 CAO          1.9180     0.0560     0.3560 c6         1 8HR       0.073500
     13 CAP          3.0170     0.2680     1.3910 c6         1 8HR       0.087000
     14 CAR          4.4720     1.1970    -0.3010 c6         1 8HR       0.087000
     15 CAS          3.3860     0.9830    -1.3450 c6         1 8HR       0.073500
     16 CAT          5.2160    -0.7320     1.0900 c          1 8HR       0.652100
     17 CAW          7.3650    -1.5990     0.6170 c3         1 8HR       0.183600
     18 CAX          8.5240    -1.2760    -0.3020 c3         1 8HR      -0.085400
     19 CAY          9.6460    -2.2930    -0.1450 c3         1 8HR      -0.090100
     20 CAZ         -4.1310    -3.1270    -0.4340 ca         1 8HR      -0.078000
     21 CBA         -4.7400    -4.3580    -0.6130 ca         1 8HR      -0.118000
     22 CBB         -6.1240    -4.4470    -0.7070 ca         1 8HR      -0.093000
     23 CBC         -6.8930    -3.2950    -0.6190 ca         1 8HR      -0.118000
     24 CBD         -6.2850    -2.0620    -0.4310 ca         1 8HR      -0.078000
     25 NAG         -2.9750    -0.5650    -0.5130 nb         1 8HR      -0.666000
     26 NAM          2.0650     1.0040    -0.7370 n          1 8HR      -0.409800
     27 NAQ          4.3230     0.2310     0.7710 n          1 8HR      -0.408800
     28 OAN          1.4160     2.8630    -1.8550 o          1 8HR      -0.590100
     29 OAU          5.0320    -1.5890     1.9330 o          1 8HR      -0.545000
     30 OAV          6.3410    -0.6280     0.3830 os         1 8HR      -0.463100
     31 H1          -2.5990     3.8120     0.8130 ha         1 8HR       0.132000
     32 H2          -0.2780     3.8720     0.0760 ha         1 8HR       0.133000
     33 H3          -0.5280    -0.2310    -1.1690 ha         1 8HR       0.138000
     34 H4          -5.9420     0.3120     0.7870 ha         1 8HR       0.141000
     35 CL1         -5.0920     2.9280     1.3660 cl         1 8HR      -0.181000
     36 H6           1.9710    -0.9630    -0.0380 h1         1 8HR       0.066950
     37 H7           0.9560     0.1760     0.8450 h1         1 8HR       0.066950
     38 H8           2.8770     1.2410     1.8720 h1         1 8HR       0.069450
     39 H9           2.9410    -0.4970     2.1590 h1         1 8HR       0.069450
     40 H10          5.4470     1.1170    -0.7720 h1         1 8HR       0.069450
     41 H11          4.3880     2.2050     0.1160 h1         1 8HR       0.069450
     42 H12          3.4510     1.7500    -2.1120 h1         1 8HR       0.066950
     43 H13          3.5290     0.0100    -1.8260 h1         1 8HR       0.066950
     44 H14          6.9830    -2.6030     0.4130 h1         1 8HR       0.050700
     45 H15          7.6850    -1.5650     1.6620 h1         1 8HR       0.050700
     46 H16          8.1760    -1.2680    -1.3380 hc         1 8HR       0.052200
     47 H17          8.8990    -0.2740    -0.0820 hc         1 8HR       0.052200
     48 H18         10.0230    -2.3190     0.8790 hc         1 8HR       0.037700
     49 H19          9.3110    -3.3000    -0.4010 hc         1 8HR       0.037700
     50 H20         10.4840    -2.0490    -0.7960 hc         1 8HR       0.037700
     51 H21         -3.0540    -3.0630    -0.3630 ha         1 8HR       0.122000
     52 H22         -4.1330    -5.2510    -0.6780 ha         1 8HR       0.115500
     53 H23         -6.6000    -5.4080    -0.8500 ha         1 8HR       0.115000
     54 H24         -7.9700    -3.3520    -0.6990 ha         1 8HR       0.115500
     55 H25         -6.9070    -1.1770    -0.3820 ha         1 8HR       0.122000
@<TRIPOS>BOND
     1     1     2 ar  
     2     1     6 ar  
     3     1    25 ar  
     4     2     3 ar  
     5     2     9 ar  
     6     3     4 ar  
     7     3    31 1   
     8     4     5 ar  
     9     4    32 1   
    10     5     6 ar  
    11     5    11 1   
    12     6    33 1   
    13     7     8 ar  
    14     7    10 1   
    15     7    25 ar  
    16     8     9 ar  
    17     8    34 1   
    18     9    35 1   
    19    10    20 ar  
    20    10    24 ar  
    21    11    26 1   
    22    11    28 2   
    23    12    13 1   
    24    12    26 1   
    25    12    36 1   
    26    12    37 1   
    27    13    27 1   
    28    13    38 1   
    29    13    39 1   
    30    14    15 1   
    31    14    27 1   
    32    14    40 1   
    33    14    41 1   
    34    15    26 1   
    35    15    42 1   
    36    15    43 1   
    37    16    27 1   
    38    16    29 2   
    39    16    30 1   
    40    17    18 1   
    41    17    30 1   
    42    17    44 1   
    43    17    45 1   
    44    18    19 1   
    45    18    46 1   
    46    18    47 1   
    47    19    48 1   
    48    19    49 1   
    49    19    50 1   
    50    20    21 ar  
    51    20    51 1   
    52    21    22 ar  
    53    21    52 1   
    54    22    23 ar  
    55    22    53 1   
    56    23    24 ar  
    57    23    54 1   
    58    24    55 1   
@<TRIPOS>SUBSTRUCTURE
     1 8HR         1 TEMP              0 ****  ****    0 ROOT
