@<TRIPOS>MOLECULE
8HT
   59    62     1     0     0
SMALL
bcc


@<TRIPOS>ATOM
      1 C23         -8.4740    -1.6420    -0.7320 ca         1 8HT      -0.119000
      2 C22         -7.4350    -1.8990    -1.6170 ca         1 8HT      -0.128500
      3 C24         -8.2110    -0.9810     0.4600 ca         1 8HT      -0.128500
      4 C30          2.5710     6.3930    -1.2320 ca         1 8HT      -0.110000
      5 C31          3.6100     6.3920    -0.2890 ca         1 8HT      -0.153000
      6 C21         -6.1430    -1.4960    -1.3130 ca         1 8HT      -0.113500
      7 C25         -6.9190    -0.5770     0.7640 ca         1 8HT      -0.113500
      8 C16         -3.3940    -1.1900    -0.1460 ca         1 8HT      -0.129500
      9 C18         -4.2520     0.7960     0.8840 ca         1 8HT      -0.129500
     10 C15         -2.1030    -0.7890     0.1540 ca         1 8HT      -0.090000
     11 C19         -2.9640     1.1910     1.1970 ca         1 8HT      -0.090000
     12 C29          1.7750     5.2780    -1.4310 ca         1 8HT      -0.134000
     13 C32          3.8850     5.2760     0.4820 ca         1 8HT      -0.065000
     14 C20         -5.8660    -0.8300    -0.1170 cp         1 8HT      -0.048000
     15 C17         -4.4910    -0.4030     0.2070 cp         1 8HT      -0.004000
     16 C14         -1.8730     0.4100     0.8240 ca         1 8HT      -0.157600
     17 C28          2.0590     4.1620    -0.6540 ca         1 8HT      -0.078200
     18 C33          3.0950     4.1420     0.2960 ca         1 8HT       0.071400
     19 C26          2.1790     2.2230     0.3700 cc         1 8HT       0.397800
     20 C12         -0.5070     0.8740     1.1970 c          1 8HT       0.673700
     21 C3           4.3890    -4.8350    -0.4110 c2         1 8HT       0.581200
     22 C2           3.9300    -6.2130     0.0060 c3         1 8HT       0.134600
     23 C8           2.8180    -0.1440    -0.0830 c3         1 8HT      -0.087400
     24 C6           3.6910    -2.4770    -0.3890 c3         1 8HT       0.216800
     25 C9           1.8800     0.7860     0.6890 c3         1 8HT       0.102400
     26 N27          1.5000     2.9130    -0.5790 na         1 8HT      -0.257300
     27 N4           5.4850    -4.7040    -1.0470 n2         1 8HT      -0.802100
     28 N34          3.1380     2.9160     0.9170 nd         1 8HT      -0.568100
     29 N11          0.5030     0.4560     0.4050 ns         1 8HT      -0.591900
     30 N5           3.5370    -3.8600    -0.0010 nu         1 8HT      -0.906200
     31 O13         -0.3140     1.5940     2.1650 o          1 8HT      -0.572100
     32 H1          -9.4820    -1.9560    -0.9710 ha         1 8HT       0.134000
     33 H2          -7.6310    -2.4080    -2.5520 ha         1 8HT       0.133500
     34 H3          -9.0120    -0.7830     1.1590 ha         1 8HT       0.133500
     35 H4           2.3870     7.2860    -1.8150 ha         1 8HT       0.130000
     36 H5           4.2080     7.2860    -0.1650 ha         1 8HT       0.132000
     37 H6          -5.3470    -1.6880    -2.0220 ha         1 8HT       0.132000
     38 H7          -6.7270    -0.0790     1.7060 ha         1 8HT       0.132000
     39 H8          -3.5460    -2.1410    -0.6390 ha         1 8HT       0.139000
     40 H9          -5.0800     1.4370     1.1560 ha         1 8HT       0.139000
     41 H10         -1.2850    -1.4470    -0.1110 ha         1 8HT       0.141500
     42 H11         -2.8060     2.1230     1.7230 ha         1 8HT       0.141500
     43 H12          0.9730     5.2780    -2.1580 ha         1 8HT       0.133000
     44 H13          4.6870     5.2790     1.2080 ha         1 8HT       0.147000
     45 H14          3.8420    -6.2620     1.0940 h1         1 8HT       0.048200
     46 H15          2.9500    -6.4280    -0.4250 h1         1 8HT       0.048200
     47 H17          2.8210    -1.6960     1.4100 hc         1 8HT       0.050700
     48 H18          1.6680    -1.9650     0.1110 hc         1 8HT       0.050700
     49 H19          3.8400     0.1930     0.1030 hc         1 8HT       0.061200
     50 H20          2.6420    -0.0300    -1.1580 hc         1 8HT       0.061200
     51 H21          3.5850    -2.3560    -1.4740 h1         1 8HT       0.040200
     52 H22          4.6990    -2.1410    -0.1300 h1         1 8HT       0.040200
     53 H23          2.0620     0.6540     1.7590 h1         1 8HT       0.106700
     54 H24          0.7170     2.5740    -1.1150 hn         1 8HT       0.303700
     55 H25          5.6800    -3.7340    -1.2720 hn         1 8HT       0.377400
     56 H27          0.2960    -0.0170    -0.4610 hn         1 8HT       0.316500
     57 H28          2.6200    -4.1430     0.3090 hn         1 8HT       0.421800
     58 F1           4.8210    -7.1730    -0.4140 f          1 8HT      -0.214300
     59 C7           2.6770    -1.6030     0.3300 c3         1 8HT      -0.087400
@<TRIPOS>BOND
     1     1     2 ar  
     2     1     3 ar  
     3     1    32 1   
     4     2     6 ar  
     5     2    33 1   
     6     3     7 ar  
     7     3    34 1   
     8     4     5 ar  
     9     4    12 ar  
    10     4    35 1   
    11     5    13 ar  
    12     5    36 1   
    13     6    14 ar  
    14     6    37 1   
    15     7    14 ar  
    16     7    38 1   
    17     8    10 ar  
    18     8    15 ar  
    19     8    39 1   
    20     9    11 ar  
    21     9    15 ar  
    22     9    40 1   
    23    10    16 ar  
    24    10    41 1   
    25    11    16 ar  
    26    11    42 1   
    27    12    17 ar  
    28    12    43 1   
    29    13    18 ar  
    30    13    44 1   
    31    14    15 1   
    32    16    20 1   
    33    17    18 ar  
    34    17    26 1   
    35    18    28 1   
    36    19    25 1   
    37    19    26 1   
    38    19    28 2   
    39    20    29 1   
    40    20    31 2   
    41    21    22 1   
    42    21    27 2   
    43    21    30 1   
    44    22    45 1   
    45    22    46 1   
    46    22    58 1   
    47    23    25 1   
    48    23    49 1   
    49    23    50 1   
    50    23    59 1   
    51    24    30 1   
    52    24    51 1   
    53    24    52 1   
    54    24    59 1   
    55    25    29 1   
    56    25    53 1   
    57    26    54 1   
    58    27    55 1   
    59    29    56 1   
    60    30    57 1   
    61    47    59 1   
    62    48    59 1   
@<TRIPOS>SUBSTRUCTURE
     1 8HT         1 TEMP              0 ****  ****    0 ROOT
