@<TRIPOS>MOLECULE
8HT
   59    62     1     0     0
SMALL
No Charge or Current Charge


@<TRIPOS>ATOM
      1 C23         -8.5500    -1.7260    -0.7250 ca         1 8HT      -0.101000
      2 C22         -7.6410    -1.4300    -1.7530 ca         1 8HT      -0.110500
      3 C24         -8.1520    -1.6020     0.6150 ca         1 8HT      -0.110500
      4 C30          2.7260     6.5380    -1.3790 ca         1 8HT      -0.092000
      5 C31          3.6850     6.5850    -0.3370 ca         1 8HT      -0.135000
      6 C21         -6.3360    -1.0100    -1.4410 ca         1 8HT      -0.095500
      7 C25         -6.8480    -1.1800     0.9270 ca         1 8HT      -0.095500
      8 C16         -3.4180    -0.7950    -0.5680 ca         1 8HT      -0.111500
      9 C18         -4.2610     0.3800     1.3720 ca         1 8HT      -0.111500
     10 C15         -2.1110    -0.3770    -0.2600 ca         1 8HT      -0.072000
     11 C19         -2.9580     0.8020     1.6850 ca         1 8HT      -0.072000
     12 C29          1.9850     5.3600    -1.6090 ca         1 8HT      -0.116000
     13 C32          3.9090     5.4540     0.4810 ca         1 8HT      -0.047000
     14 C20         -5.9110    -0.8750    -0.0940 cp         1 8HT      -0.048000
     15 C17         -4.5210    -0.4270     0.2390 cp         1 8HT      -0.004000
     16 C14         -1.8620     0.4310     0.8750 ca         1 8HT      -0.157600
     17 C28          2.2400     4.2650    -0.7760 ca         1 8HT      -0.078200
     18 C33          3.1600     4.2950     0.2330 ca         1 8HT       0.071400
     19 C26          2.2960     2.3140     0.2720 cc         1 8HT       0.397800
     20 C12         -0.4710     0.9040     1.2430 c          1 8HT       0.606700
     21 C3           4.1800    -5.0590    -0.3970 c2         1 8HT       0.581200
     22 C2           3.8030    -6.3980     0.2460 c3         1 8HT       0.153300
     23 C8           2.8950    -0.1210    -0.1390 c3         1 8HT      -0.087400
     24 C6           3.7000    -2.5480    -0.4330 c3         1 8HT       0.216800
     25 C9           1.9750     0.8690     0.6170 c3         1 8HT       0.102400
     26 N27          1.6880     3.0220    -0.7650 na         1 8HT      -0.307600
     27 N4           5.0480    -4.9090    -1.3140 n2         1 8HT      -0.802100
     28 N34          3.2140     3.0760     0.9040 nd         1 8HT      -0.568100
     29 N11          0.5550     0.5230     0.4060 ns         1 8HT      -0.524900
     30 N5           3.4970    -3.9340     0.0220 nu         1 8HT      -0.961400
     31 O13         -0.2540     1.5930     2.2300 o          1 8HT      -0.572100
     32 H1          -9.5590    -2.0520    -0.9670 ha         1 8HT       0.116000
     33 H2          -7.9480    -1.5230    -2.7930 ha         1 8HT       0.115500
     34 H3          -8.8540    -1.8340     1.4140 ha         1 8HT       0.115500
     35 H4           2.5600     7.4140    -2.0030 ha         1 8HT       0.112000
     36 H5           4.2520     7.4970    -0.1650 ha         1 8HT       0.114000
     37 H6          -5.6540    -0.7720    -2.2530 ha         1 8HT       0.114000
     38 H7          -6.5570    -1.1040     1.9720 ha         1 8HT       0.114000
     39 H8          -3.5720    -1.4260    -1.4400 ha         1 8HT       0.121000
     40 H9          -5.0810     0.6970     2.0110 ha         1 8HT       0.121000
     41 H10         -1.3060    -0.6970    -0.9160 ha         1 8HT       0.123500
     42 H11         -2.8050     1.4250     2.5640 ha         1 8HT       0.123500
     43 H12          1.2460     5.3060    -2.4050 ha         1 8HT       0.115000
     44 H13          4.6430     5.4800     1.2830 ha         1 8HT       0.129000
     45 H14          2.8550    -6.7510    -0.1770 h1         1 8HT       0.048200
     46 H15          4.5730    -7.1460     0.0250 h1         1 8HT       0.048200
     47 H17          2.9020    -1.6730     1.3790 hc         1 8HT       0.050700
     48 H18          1.7030    -1.9280     0.1090 hc         1 8HT       0.050700
     49 H19          3.9380     0.1800     0.0230 hc         1 8HT       0.061200
     50 H20          2.7090    -0.0360    -1.2170 hc         1 8HT       0.061200
     51 H21          3.5250    -2.4770    -1.5160 h1         1 8HT       0.040200
     52 H22          4.7340    -2.2340    -0.2320 h1         1 8HT       0.040200
     53 H23          2.1870     0.7540     1.6890 h1         1 8HT       0.106700
     54 H24          0.9690     2.6670    -1.3800 hn         1 8HT       0.354000
     55 H25          5.0580    -3.9110    -1.5450 hn         1 8HT       0.377400
     56 H27          0.3110    -0.0550    -0.3870 hn         1 8HT       0.316500
     57 H28          2.8730    -4.0820     0.8150 hn         1 8HT       0.477000
     58 F1           3.6640    -6.3190     1.5980 f          1 8HT      -0.233000
     59 C7           2.7320    -1.5990     0.2980 c3         1 8HT      -0.087400
@<TRIPOS>BOND
     1     1     2 ar  
     2     1     3 ar  
     3     1    32 1   
     4     2     6 ar  
     5     2    33 1   
     6     3     7 ar  
     7     3    34 1   
     8     4     5 ar  
     9     4    12 ar  
    10     4    35 1   
    11     5    13 ar  
    12     5    36 1   
    13     6    14 ar  
    14     6    37 1   
    15     7    14 ar  
    16     7    38 1   
    17     8    10 ar  
    18     8    15 ar  
    19     8    39 1   
    20     9    11 ar  
    21     9    15 ar  
    22     9    40 1   
    23    10    16 ar  
    24    10    41 1   
    25    11    16 ar  
    26    11    42 1   
    27    12    17 ar  
    28    12    43 1   
    29    13    18 ar  
    30    13    44 1   
    31    14    15 1   
    32    16    20 1   
    33    17    18 ar  
    34    17    26 1   
    35    18    28 1   
    36    19    25 1   
    37    19    26 1   
    38    19    28 2   
    39    20    29 1   
    40    20    31 2   
    41    21    22 1   
    42    21    27 2   
    43    21    30 1   
    44    22    45 1   
    45    22    46 1   
    46    22    58 1   
    47    23    25 1   
    48    23    49 1   
    49    23    50 1   
    50    23    59 1   
    51    24    30 1   
    52    24    51 1   
    53    24    52 1   
    54    24    59 1   
    55    25    29 1   
    56    25    53 1   
    57    26    54 1   
    58    27    55 1   
    59    29    56 1   
    60    30    57 1   
    61    47    59 1   
    62    48    59 1   
@<TRIPOS>SUBSTRUCTURE
     1 8HT         1 TEMP              0 ****  ****    0 ROOT
