@<TRIPOS>MOLECULE
8HV
   57    60     1     0     0
SMALL
bcc


@<TRIPOS>ATOM
      1 N1           2.2550     0.0960    -0.0540 ns         1 8HV      -0.472100
      2 C4          -5.4860     1.8100     0.6210 c6         1 8HV       0.090000
      3 C5          -3.9930     1.5780     0.8080 c6         1 8HV      -0.095400
      4 C6          -3.3240     1.2760    -0.5360 c6         1 8HV      -0.013400
      5 C7          -4.0650     0.1430    -1.2500 c6         1 8HV      -0.095400
      6 C8          -5.5640     0.4100    -1.3360 c6         1 8HV       0.090000
      7 C10         -1.3910    -0.0970     0.3530 ca         1 8HV      -0.101000
      8 C13          3.2880     0.9610    -0.0280 c          1 8HV       0.797100
      9 C15          6.2110    -1.1200    -0.2060 ca         1 8HV      -0.093000
     10 C17          8.4030    -2.0780    -0.1540 ca         1 8HV      -0.160000
     11 C20          6.7270     0.0980     0.3600 ca         1 8HV      -0.089000
     12 C21          5.6740     0.9750     0.4730 cc         1 8HV      -0.091400
     13 C22          0.4570     1.5260    -0.9260 ca         1 8HV      -0.148000
     14 C18          8.8850    -0.8650     0.4150 ca         1 8HV       0.120900
     15 C16          7.0850    -2.2100    -0.4630 ca         1 8HV      -0.071000
     16 C19          8.1090     0.2110     0.6810 ca         1 8HV      -0.131000
     17 C14          4.8600    -0.9400    -0.4070 cc         1 8HV      -0.143400
     18 N2           4.5570     0.3280     0.0140 n          1 8HV      -0.199200
     19 O2           3.2100     2.1660    -0.0320 o          1 8HV      -0.553100
     20 C12          0.8980     0.4470    -0.1690 ca         1 8HV       0.060600
     21 C11         -0.0380    -0.3630     0.4700 ca         1 8HV      -0.148000
     22 C23         -0.9030     1.7830    -1.0250 ca         1 8HV      -0.101000
     23 C9          -1.8520     0.9850    -0.3950 ca         1 8HV      -0.086300
     24 N           -6.1170     0.6600    -0.0120 n          1 8HV      -0.465800
     25 C3          -6.8740    -0.1730     0.7380 c          1 8HV       0.637100
     26 O1          -7.0350     0.0210     1.9370 o          1 8HV      -0.605100
     27 C1          -7.5780    -1.3880     0.0840 c3         1 8HV       0.095800
     28 O           -8.0620    -1.1030    -1.2140 oh         1 8HV      -0.596800
     29 C2          -6.5760    -2.5340    -0.0400 c3         1 8HV      -0.098100
     30 C           -8.7430    -1.8290     0.9700 c3         1 8HV      -0.098100
     31 H1           2.4360    -0.8640     0.2010 hn         1 8HV       0.334500
     32 H2          -5.9710     2.0230     1.5680 h1         1 8HV       0.063200
     33 H3          -5.6430     2.6760    -0.0320 h1         1 8HV       0.063200
     34 H4          -3.5420     2.4640     1.2600 hc         1 8HV       0.052700
     35 H5          -3.8430     0.7500     1.5070 hc         1 8HV       0.052700
     36 H6          -3.4240     2.1740    -1.1580 hc         1 8HV       0.051700
     37 H7          -3.6710     0.0190    -2.2620 hc         1 8HV       0.052700
     38 H8          -3.8960    -0.8050    -0.7300 hc         1 8HV       0.052700
     39 H9          -5.7420     1.3000    -1.9480 h1         1 8HV       0.063200
     40 H10         -6.0730    -0.4090    -1.8270 h1         1 8HV       0.063200
     41 H11         -2.0910    -0.7480     0.8640 ha         1 8HV       0.136000
     42 H12          9.1020    -2.8850    -0.3340 ha         1 8HV       0.146000
     43 H13          5.6280     1.9800     0.8570 h4         1 8HV       0.192000
     44 H14          1.1530     2.1630    -1.4520 ha         1 8HV       0.144000
     45 H15          6.7110    -3.1290    -0.8950 ha         1 8HV       0.134000
     46 H16          8.5200     1.1130     1.1140 ha         1 8HV       0.151000
     47 H17          4.1320    -1.5930    -0.8600 h4         1 8HV       0.172000
     48 H18          0.2930    -1.2100     1.0600 ha         1 8HV       0.144000
     49 H19         -1.2290     2.6290    -1.6170 ha         1 8HV       0.136000
     50 H20         -8.7440    -0.4260    -1.1480 ho         1 8HV       0.413000
     51 H21         -6.1800    -2.7960     0.9410 hc         1 8HV       0.049867
     52 H22         -7.0690    -3.4170    -0.4500 hc         1 8HV       0.049867
     53 H23         -5.7330    -2.2910    -0.6870 hc         1 8HV       0.049867
     54 H24         -9.4850    -1.0370     1.0870 hc         1 8HV       0.049867
     55 H25         -9.2350    -2.6850     0.5060 hc         1 8HV       0.049867
     56 H26         -8.4170    -2.1290     1.9640 hc         1 8HV       0.049867
     57 F           10.2020    -0.8190     0.6920 f          1 8HV      -0.149900
@<TRIPOS>BOND
     1     1     8 1   
     2     1    20 1   
     3     1    31 1   
     4     2     3 1   
     5     2    24 1   
     6     2    32 1   
     7     2    33 1   
     8     3     4 1   
     9     3    34 1   
    10     3    35 1   
    11     4     5 1   
    12     4    23 1   
    13     4    36 1   
    14     5     6 1   
    15     5    37 1   
    16     5    38 1   
    17     6    24 1   
    18     6    39 1   
    19     6    40 1   
    20     7    21 ar  
    21     7    23 ar  
    22     7    41 1   
    23     8    18 1   
    24     8    19 2   
    25     9    11 ar  
    26     9    15 ar  
    27     9    17 2   
    28    10    14 ar  
    29    10    15 ar  
    30    10    42 1   
    31    11    12 2   
    32    11    16 ar  
    33    12    18 1   
    34    12    43 1   
    35    13    20 ar  
    36    13    22 ar  
    37    13    44 1   
    38    14    16 ar  
    39    14    57 1   
    40    15    45 1   
    41    16    46 1   
    42    17    18 1   
    43    17    47 1   
    44    20    21 ar  
    45    21    48 1   
    46    22    23 ar  
    47    22    49 1   
    48    24    25 1   
    49    25    26 2   
    50    25    27 1   
    51    27    28 1   
    52    27    29 1   
    53    27    30 1   
    54    28    50 1   
    55    29    51 1   
    56    29    52 1   
    57    29    53 1   
    58    30    54 1   
    59    30    55 1   
    60    30    56 1   
@<TRIPOS>SUBSTRUCTURE
     1 8HV         1 TEMP              0 ****  ****    0 ROOT
