@<TRIPOS>MOLECULE
8HV
   57    60     1     0     0
SMALL
No Charge or Current Charge


@<TRIPOS>ATOM
      1 N1           2.5430     0.3110    -0.1040 ns         1 8HV      -0.146000
      2 C4          -5.3480     1.0660     1.2900 c6         1 8HV       0.090000
      3 C5          -3.8150     0.8680     1.3070 c6         1 8HV      -0.095400
      4 C6          -3.2220     0.9400    -0.1150 c6         1 8HV      -0.013400
      5 C7          -3.9190    -0.1280    -0.9840 c6         1 8HV      -0.095400
      6 C8          -5.4530     0.0660    -1.0030 c6         1 8HV       0.090000
      7 C10         -1.0820    -0.3910     0.3660 ca         1 8HV      -0.083000
      8 C13          3.6200     1.1260    -0.4380 c          1 8HV       0.663100
      9 C15          6.6280    -0.9250     0.1490 ca         1 8HV      -0.093000
     10 C17          8.8220    -1.8910     0.3920 ca         1 8HV      -0.142000
     11 C20          7.1850     0.2600    -0.2870 ca         1 8HV      -0.089000
     12 C21          6.1150     1.1920    -0.5670 cc         1 8HV      -0.141400
     13 C22          0.5210     1.6930    -0.6140 ca         1 8HV      -0.130000
     14 C18          9.3900    -0.6750    -0.0550 ca         1 8HV       0.156000
     15 C16          7.4210    -2.0260     0.4990 ca         1 8HV      -0.053000
     16 C19          8.5720     0.4200    -0.4020 ca         1 8HV      -0.113000
     17 C14          5.1890    -0.7790     0.1590 cc         1 8HV      -0.193400
     18 N2           4.9060     0.5320    -0.2860 n          1 8HV      -0.132200
     19 O2           3.4990     2.2800    -0.8350 o          1 8HV      -0.553100
     20 C12          1.1350     0.5180    -0.1280 ca         1 8HV      -0.032000
     21 C11          0.3170    -0.5200     0.3590 ca         1 8HV      -0.130000
     22 C23         -0.8790     1.8220    -0.6060 ca         1 8HV      -0.083000
     23 C9          -1.6930     0.7830    -0.1160 ca         1 8HV      -0.086300
     24 N           -6.0780     0.1540     0.3560 n          1 8HV      -0.398800
     25 C3          -7.4870     0.0190     0.5110 c          1 8HV       0.570100
     26 O1          -8.0700     0.7340     1.3210 o          1 8HV      -0.605100
     27 C1          -8.2720    -1.1170    -0.2820 c3         1 8HV       0.119000
     28 O           -8.3530    -0.8330    -1.6980 oh         1 8HV      -0.659000
     29 C2          -7.5800    -2.4960    -0.1080 c3         1 8HV      -0.098100
     30 C           -9.7400    -1.2260     0.2140 c3         1 8HV      -0.098100
     31 H1           2.8100    -0.6080     0.2170 hn         1 8HV       0.168000
     32 H2          -5.7250     0.9200     2.3130 h1         1 8HV       0.063200
     33 H3          -5.5720     2.1050     1.0100 h1         1 8HV       0.063200
     34 H4          -3.3530     1.6340     1.9450 hc         1 8HV       0.052700
     35 H5          -3.5840    -0.1020     1.7680 hc         1 8HV       0.052700
     36 H6          -3.4700     1.9260    -0.5330 hc         1 8HV       0.051700
     37 H7          -3.5310    -0.0850    -2.0110 hc         1 8HV       0.052700
     38 H8          -3.6900    -1.1340    -0.6070 hc         1 8HV       0.052700
     39 H9          -5.6870     0.9910    -1.5490 h1         1 8HV       0.063200
     40 H10         -5.8820    -0.7580    -1.5840 h1         1 8HV       0.063200
     41 H11         -1.6880    -1.2090     0.7500 ha         1 8HV       0.118000
     42 H12          9.4700    -2.7230     0.6550 ha         1 8HV       0.128000
     43 H13          6.0700     2.2170    -0.9220 h4         1 8HV       0.242000
     44 H14          1.1060     2.5180    -1.0060 ha         1 8HV       0.126000
     45 H15          6.9700    -2.9550     0.8410 ha         1 8HV       0.116000
     46 H16          9.0060     1.3550    -0.7460 ha         1 8HV       0.133000
     47 H17          4.3740    -1.4440     0.4230 h4         1 8HV       0.222000
     48 H18          0.7670    -1.4360     0.7370 ha         1 8HV       0.126000
     49 H19         -1.3290     2.7360    -0.9860 ha         1 8HV       0.118000
     50 H20         -8.8950    -0.0200    -1.8050 ho         1 8HV       0.452000
     51 H21         -7.5320    -2.7670     0.9540 hc         1 8HV       0.049867
     52 H22         -8.1390    -3.2820    -0.6310 hc         1 8HV       0.049867
     53 H23         -6.5580    -2.5020    -0.4980 hc         1 8HV       0.049867
     54 H24        -10.2770    -0.2800     0.0770 hc         1 8HV       0.049867
     55 H25        -10.2840    -2.0050    -0.3350 hc         1 8HV       0.049867
     56 H26         -9.7720    -1.4830     1.2800 hc         1 8HV       0.049867
     57 F           10.7320    -0.5610    -0.1510 f          1 8HV      -0.185000
@<TRIPOS>BOND
     1     1     8 1   
     2     1    20 1   
     3     1    31 1   
     4     2     3 1   
     5     2    24 1   
     6     2    32 1   
     7     2    33 1   
     8     3     4 1   
     9     3    34 1   
    10     3    35 1   
    11     4     5 1   
    12     4    23 1   
    13     4    36 1   
    14     5     6 1   
    15     5    37 1   
    16     5    38 1   
    17     6    24 1   
    18     6    39 1   
    19     6    40 1   
    20     7    21 ar  
    21     7    23 ar  
    22     7    41 1   
    23     8    18 1   
    24     8    19 2   
    25     9    11 ar  
    26     9    15 ar  
    27     9    17 2   
    28    10    14 ar  
    29    10    15 ar  
    30    10    42 1   
    31    11    12 2   
    32    11    16 ar  
    33    12    18 1   
    34    12    43 1   
    35    13    20 ar  
    36    13    22 ar  
    37    13    44 1   
    38    14    16 ar  
    39    14    57 1   
    40    15    45 1   
    41    16    46 1   
    42    17    18 1   
    43    17    47 1   
    44    20    21 ar  
    45    21    48 1   
    46    22    23 ar  
    47    22    49 1   
    48    24    25 1   
    49    25    26 2   
    50    25    27 1   
    51    27    28 1   
    52    27    29 1   
    53    27    30 1   
    54    28    50 1   
    55    29    51 1   
    56    29    52 1   
    57    29    53 1   
    58    30    54 1   
    59    30    55 1   
    60    30    56 1   
@<TRIPOS>SUBSTRUCTURE
     1 8HV         1 TEMP              0 ****  ****    0 ROOT
