@<TRIPOS>MOLECULE
8HW
   60    63     1     0     0
SMALL
No Charge or Current Charge


@<TRIPOS>ATOM
      1 F1          -1.8470     3.1030    -1.7190 f          1 8HW      -0.176000
      2 C19         -2.2840     2.3910    -0.6550 ca         1 8HW       0.107000
      3 C20         -3.6670     2.2610    -0.4410 ca         1 8HW      -0.095000
      4 C21         -4.1490     1.5250     0.6600 ca         1 8HW      -0.126300
      5 C22         -5.6480     1.3930     0.8840 c3         1 8HW       0.215100
      6 N           -6.1810     0.2640     0.1040 n7         1 8HW      -0.828400
      7 C23         -7.6590     0.0350     0.2300 c3         1 8HW       0.046800
      8 C24         -8.2460    -1.1010    -0.6710 c          1 8HW       0.623100
      9 O3          -7.6310    -1.5670    -1.6290 o          1 8HW      -0.567100
     10 C25         -9.6430    -1.5850    -0.3270 c3         1 8HW      -0.333400
     11 C26         -9.4230    -2.8020     0.5360 c          1 8HW       0.732000
     12 O4          -9.2780    -2.6290     1.7340 o          1 8HW      -0.719500
     13 O5          -9.3460    -3.8890    -0.0110 o          1 8HW      -0.719500
     14 C2          -1.3610     1.7890     0.2270 ca         1 8HW       0.128100
     15 C1          -1.8420     1.0520     1.3310 ca         1 8HW      -0.235000
     16 C           -3.2250     0.9240     1.5410 ca         1 8HW       0.231000
     17 F           -3.6580     0.2140     2.6070 f          1 8HW      -0.149000
     18 O           -0.0090     1.9430    -0.0210 os         1 8HW      -0.334100
     19 C3           1.0020     1.3680     0.8270 c3         1 8HW       0.209900
     20 C4           2.3990     1.7270     0.2980 ca         1 8HW      -0.089300
     21 C5           3.5050     0.8420     0.4480 ca         1 8HW      -0.052300
     22 C6           3.3260    -0.4750     1.2130 c3         1 8HW      -0.058800
     23 C7           4.7800     1.2030    -0.0890 cp         1 8HW      -0.040000
     24 C16          4.9270     2.4620    -0.7150 ca         1 8HW      -0.097000
     25 C17          3.8470     3.3440    -0.8290 ca         1 8HW      -0.120000
     26 C18          2.5910     2.9770    -0.3300 ca         1 8HW      -0.074000
     27 C8           5.9710     0.3020    -0.0220 cp         1 8HW      -0.031000
     28 C9           5.9320    -1.0050    -0.5680 ca         1 8HW      -0.095000
     29 C10          7.0590    -1.8400    -0.5200 ca         1 8HW       0.053100
     30 C11          8.2520    -1.3820     0.0930 ca         1 8HW       0.055100
     31 C14          8.3130    -0.0820     0.6170 ca         1 8HW      -0.112000
     32 C15          7.1830     0.7530     0.5570 ca         1 8HW      -0.101000
     33 O2           6.9920    -3.1020    -1.0760 os         1 8HW      -0.329100
     34 C13          8.2380    -3.8000    -1.2960 c6         1 8HW       0.118600
     35 C12          9.1690    -3.6090    -0.0790 c6         1 8HW       0.118600
     36 O1           9.3610    -2.2000     0.1770 os         1 8HW      -0.332100
     37 H1          -4.3610     2.7340    -1.1320 ha         1 8HW       0.132000
     38 H2          -5.8550     1.2530     1.9530 h1         1 8HW       0.034200
     39 H3          -6.1370     2.3290     0.5810 h1         1 8HW       0.034200
     40 H4          -5.9560     0.4250    -0.8870 hn         1 8HW       0.413000
     41 H6          -7.9110    -0.2100     1.2700 h1         1 8HW       0.048200
     42 H7          -8.2110     0.9500    -0.0230 h1         1 8HW       0.048200
     43 H8         -10.1150    -0.7950     0.2690 hc         1 8HW       0.042700
     44 H9         -10.1330    -1.8580    -1.2690 hc         1 8HW       0.042700
     45 H11         -1.1690     0.5730     2.0340 ha         1 8HW       0.134000
     46 H12          0.9050     1.7470     1.8530 h1         1 8HW       0.047700
     47 H13          0.8740     0.2790     0.8490 h1         1 8HW       0.047700
     48 H14          2.8790    -1.2450     0.5730 hc         1 8HW       0.047033
     49 H15          4.2730    -0.8680     1.5980 hc         1 8HW       0.047033
     50 H16          2.6830    -0.3500     2.0920 hc         1 8HW       0.047033
     51 H17          5.8930     2.7500    -1.1220 ha         1 8HW       0.112000
     52 H18          3.9800     4.3090    -1.3130 ha         1 8HW       0.114000
     53 H19          1.7630     3.6760    -0.4320 ha         1 8HW       0.137000
     54 H20          5.0230    -1.3640    -1.0430 ha         1 8HW       0.134000
     55 H21          9.2310     0.2750     1.0780 ha         1 8HW       0.125000
     56 H22          7.2390     1.7570     0.9720 ha         1 8HW       0.121000
     57 H23          8.0340    -4.8660    -1.4670 h1         1 8HW       0.065700
     58 H24          8.7220    -3.3920    -2.1950 h1         1 8HW       0.065700
     59 H25          8.7130    -4.0740     0.8070 h1         1 8HW       0.065200
     60 H26         10.1440    -4.0840    -0.2560 h1         1 8HW       0.065200
@<TRIPOS>BOND
     1     1     2 1   
     2     2     3 ar  
     3     2    14 ar  
     4     3     4 ar  
     5     3    37 1   
     6     4     5 1   
     7     4    16 ar  
     8     5     6 1   
     9     5    38 1   
    10     5    39 1   
    11     6     7 1   
    12     6    40 1   
    13     7     8 1   
    14     7    41 1   
    15     7    42 1   
    16     8     9 2   
    17     8    10 1   
    18    10    11 1   
    19    10    43 1   
    20    10    44 1   
    21    11    12 1   
    22    11    13 1   
    23    14    15 ar  
    24    14    18 1   
    25    15    16 ar  
    26    15    45 1   
    27    16    17 1   
    28    18    19 1   
    29    19    20 1   
    30    19    46 1   
    31    19    47 1   
    32    20    21 ar  
    33    20    26 ar  
    34    21    22 1   
    35    21    23 ar  
    36    22    48 1   
    37    22    49 1   
    38    22    50 1   
    39    23    24 ar  
    40    23    27 1   
    41    24    25 ar  
    42    24    51 1   
    43    25    26 ar  
    44    25    52 1   
    45    26    53 1   
    46    27    28 ar  
    47    27    32 ar  
    48    28    29 ar  
    49    28    54 1   
    50    29    30 ar  
    51    29    33 1   
    52    30    31 ar  
    53    30    36 1   
    54    31    32 ar  
    55    31    55 1   
    56    32    56 1   
    57    33    34 1   
    58    34    35 1   
    59    34    57 1   
    60    34    58 1   
    61    35    36 1   
    62    35    59 1   
    63    35    60 1   
@<TRIPOS>SUBSTRUCTURE
     1 8HW         1 TEMP              0 ****  ****    0 ROOT
