@<TRIPOS>MOLECULE
8HW
   60    63     1     0     0
SMALL
abcg2


@<TRIPOS>ATOM
      1 F1          -1.7780     3.7040    -0.9730 f          1 8HW      -0.176000
      2 C19         -2.2400     2.6490    -0.2840 ca         1 8HW       0.107000
      3 C20         -3.5860     2.5250    -0.0400 ca         1 8HW      -0.095000
      4 C21         -4.0870     1.4400     0.6790 ca         1 8HW      -0.126300
      5 C22         -5.5590     1.2840     0.9270 c3         1 8HW       0.215100
      6 N           -6.1070     0.2030     0.1290 n7         1 8HW      -0.828400
      7 C23         -7.5260     0.0560     0.3260 c3         1 8HW       0.046800
      8 C24         -8.1470    -0.9850    -0.5710 c          1 8HW       0.623100
      9 O3          -7.5370    -1.4750    -1.4970 o          1 8HW      -0.567100
     10 C25         -9.5660    -1.3450    -0.2530 c3         1 8HW      -0.333400
     11 C26         -9.6150    -2.4690     0.8190 c          1 8HW       0.732000
     12 O4          -8.5160    -2.8650     1.2500 o          1 8HW      -0.719500
     13 O5         -10.7460    -2.8630     1.1430 o          1 8HW      -0.719500
     14 C2          -1.3190     1.7020     0.1640 ca         1 8HW       0.128100
     15 C1          -1.8010     0.6110     0.8780 ca         1 8HW      -0.235000
     16 C           -3.1620     0.5080     1.1120 ca         1 8HW       0.231000
     17 F           -3.5890    -0.5520     1.8140 f          1 8HW      -0.149000
     18 O           -0.0340     1.9310    -0.1330 os         1 8HW      -0.334100
     19 C3           0.9400     1.0190     0.3230 c3         1 8HW       0.209900
     20 C4           2.3050     1.5030    -0.0860 ca         1 8HW      -0.089300
     21 C5           3.4090     0.6800     0.1870 ca         1 8HW      -0.052300
     22 C6           3.1880    -0.6250     0.8990 c3         1 8HW      -0.058800
     23 C7           4.6880     1.1120    -0.1900 cp         1 8HW      -0.040000
     24 C16          4.8450     2.3590    -0.7960 ca         1 8HW      -0.097000
     25 C17          3.7520     3.1670    -1.0490 ca         1 8HW      -0.120000
     26 C18          2.4800     2.7370    -0.7010 ca         1 8HW      -0.074000
     27 C8           5.9000     0.2860     0.0230 cp         1 8HW      -0.031000
     28 C9           6.0140    -0.9760    -0.5520 ca         1 8HW      -0.095000
     29 C10          7.1640    -1.7350    -0.3900 ca         1 8HW       0.053100
     30 C11          8.2280    -1.2330     0.3670 ca         1 8HW       0.055100
     31 C14          8.1230     0.0310     0.9310 ca         1 8HW      -0.112000
     32 C15          6.9750     0.7870     0.7550 ca         1 8HW      -0.101000
     33 O2           7.2240    -2.9510    -0.9850 os         1 8HW      -0.329100
     34 C13          8.5330    -3.4960    -1.0660 c6         1 8HW       0.118600
     35 C12          9.2520    -3.3230     0.2490 c6         1 8HW       0.118600
     36 O1           9.3620    -1.9440     0.5690 os         1 8HW      -0.332100
     37 H1          -4.2630     3.2860    -0.4090 ha         1 8HW       0.132000
     38 H2          -5.7420     1.0590     1.9820 h1         1 8HW       0.034200
     39 H3          -6.0490     2.2490     0.7320 h1         1 8HW       0.034200
     40 H4          -5.9180     0.3840    -0.8500 hn         1 8HW       0.413000
     41 H6          -7.7310    -0.2240     1.3640 h1         1 8HW       0.048200
     42 H7          -8.0980     0.9870     0.1580 h1         1 8HW       0.048200
     43 H8         -10.1130    -0.4750     0.1240 hc         1 8HW       0.042700
     44 H9         -10.0790    -1.6830    -1.1560 hc         1 8HW       0.042700
     45 H11         -1.1450    -0.1600     1.2570 ha         1 8HW       0.134000
     46 H12          0.8870     0.9250     1.4150 h1         1 8HW       0.047700
     47 H13          0.7510     0.0220    -0.0950 h1         1 8HW       0.047700
     48 H14          2.7290    -1.3700     0.2450 hc         1 8HW       0.047033
     49 H15          4.1160    -1.0520     1.2720 hc         1 8HW       0.047033
     50 H16          2.5220    -0.5040     1.7550 hc         1 8HW       0.047033
     51 H17          5.8360     2.6860    -1.0860 ha         1 8HW       0.112000
     52 H18          3.8860     4.1290    -1.5260 ha         1 8HW       0.114000
     53 H19          1.6300     3.3700    -0.9110 ha         1 8HW       0.137000
     54 H20          5.2060    -1.3830    -1.1490 ha         1 8HW       0.134000
     55 H21          8.9490     0.4170     1.5160 ha         1 8HW       0.125000
     56 H22          6.9100     1.7670     1.2100 ha         1 8HW       0.121000
     57 H23          8.4280    -4.5520    -1.3080 h1         1 8HW       0.065700
     58 H24          9.0920    -3.0110    -1.8730 h1         1 8HW       0.065700
     59 H25          8.7200    -3.8530     1.0470 h1         1 8HW       0.065200
     60 H26         10.2630    -3.7210     0.1850 h1         1 8HW       0.065200
@<TRIPOS>BOND
     1     1     2 1   
     2     2     3 ar  
     3     2    14 ar  
     4     3     4 ar  
     5     3    37 1   
     6     4     5 1   
     7     4    16 ar  
     8     5     6 1   
     9     5    38 1   
    10     5    39 1   
    11     6     7 1   
    12     6    40 1   
    13     7     8 1   
    14     7    41 1   
    15     7    42 1   
    16     8     9 2   
    17     8    10 1   
    18    10    11 1   
    19    10    43 1   
    20    10    44 1   
    21    11    12 1   
    22    11    13 1   
    23    14    15 ar  
    24    14    18 1   
    25    15    16 ar  
    26    15    45 1   
    27    16    17 1   
    28    18    19 1   
    29    19    20 1   
    30    19    46 1   
    31    19    47 1   
    32    20    21 ar  
    33    20    26 ar  
    34    21    22 1   
    35    21    23 ar  
    36    22    48 1   
    37    22    49 1   
    38    22    50 1   
    39    23    24 ar  
    40    23    27 1   
    41    24    25 ar  
    42    24    51 1   
    43    25    26 ar  
    44    25    52 1   
    45    26    53 1   
    46    27    28 ar  
    47    27    32 ar  
    48    28    29 ar  
    49    28    54 1   
    50    29    30 ar  
    51    29    33 1   
    52    30    31 ar  
    53    30    36 1   
    54    31    32 ar  
    55    31    55 1   
    56    32    56 1   
    57    33    34 1   
    58    34    35 1   
    59    34    57 1   
    60    34    58 1   
    61    35    36 1   
    62    35    59 1   
    63    35    60 1   
@<TRIPOS>SUBSTRUCTURE
     1 8HW         1 TEMP              0 ****  ****    0 ROOT
