@<TRIPOS>MOLECULE
8HX
   16    17     1     0     0
SMALL
No Charge or Current Charge


@<TRIPOS>ATOM
      1 N1           1.9990     0.6260     0.0290 ns         1 8HX      -0.481500
      2 C2           2.1410    -0.7370     0.0520 c          1 8HX       0.629000
      3 O2           3.2240    -1.2850     0.1060 o          1 8HX      -0.546000
      4 N3           0.9610    -1.4320     0.0090 ns         1 8HX      -0.489600
      5 C4          -0.2720    -0.8230    -0.0530 cc         1 8HX       0.004600
      6 C5          -0.4110     0.5370    -0.0750 cd         1 8HX       0.143500
      7 C6           0.8390     1.3720    -0.0310 c          1 8HX       0.526500
      8 O6           0.8690     2.5950    -0.0440 o          1 8HX      -0.493000
      9 N7          -1.7640     0.8720    -0.1390 nd         1 8HX      -0.658000
     10 C8          -2.3720    -0.2910    -0.1510 cc         1 8HX       0.645800
     11 O8          -3.6850    -0.4420    -0.2070 oh         1 8HX      -0.644300
     12 N9          -1.5290    -1.3570    -0.1010 na         1 8HX      -0.331500
     13 HAC          2.8590     1.1510     0.0600 hn         1 8HX       0.346500
     14 H1           1.0540    -2.4440     0.0250 hn         1 8HX       0.462000
     15 HAA         -3.9930     0.4870    -0.2320 ho         1 8HX       0.514000
     16 HAB         -1.8070    -2.3270    -0.1020 hn         1 8HX       0.374000
@<TRIPOS>BOND
     1     1     2 1   
     2     1     7 1   
     3     1    13 1   
     4     2     3 2   
     5     2     4 1   
     6     4     5 1   
     7     4    14 1   
     8     5     6 2   
     9     5    12 1   
    10     6     7 1   
    11     6     9 1   
    12     7     8 2   
    13     9    10 2   
    14    10    11 1   
    15    10    12 1   
    16    11    15 1   
    17    12    16 1   
@<TRIPOS>SUBSTRUCTURE
     1 8HX         1 TEMP              0 ****  ****    0 ROOT
