@<TRIPOS>MOLECULE
8HX
   16    17     1     0     0
SMALL
abcg2


@<TRIPOS>ATOM
      1 N1           1.9700     0.6100    -0.0000 ns         1 8HX      -0.481500
      2 C2           2.1190    -0.7580     0.0360 c          1 8HX       0.629000
      3 O2           3.2040    -1.2950     0.1320 o          1 8HX      -0.546000
      4 N3           0.9490    -1.4690    -0.0730 ns         1 8HX      -0.489600
      5 C4          -0.2330    -0.8010    -0.0890 cc         1 8HX       0.004600
      6 C5          -0.3670     0.5600    -0.0870 cd         1 8HX       0.143500
      7 C6           0.8020     1.3800    -0.0320 c          1 8HX       0.526500
      8 O6           0.8590     2.5950     0.0050 o          1 8HX      -0.493000
      9 N7          -1.7010     0.9080    -0.1020 nd         1 8HX      -0.658000
     10 C8          -2.3250    -0.2220    -0.1210 cc         1 8HX       0.645800
     11 O8          -3.6260    -0.4550    -0.1430 oh         1 8HX      -0.644300
     12 N9          -1.4850    -1.3060    -0.1230 na         1 8HX      -0.331500
     13 HAC          2.8380     1.1280     0.0390 hn         1 8HX       0.346500
     14 H1           0.9800    -2.4590     0.1270 hn         1 8HX       0.462000
     15 HAA         -4.1110     0.3660    -0.2970 ho         1 8HX       0.514000
     16 HAB         -1.7590    -2.2790    -0.1270 hn         1 8HX       0.374000
@<TRIPOS>BOND
     1     1     2 1   
     2     1     7 1   
     3     1    13 1   
     4     2     3 2   
     5     2     4 1   
     6     4     5 1   
     7     4    14 1   
     8     5     6 2   
     9     5    12 1   
    10     6     7 1   
    11     6     9 1   
    12     7     8 2   
    13     9    10 2   
    14    10    11 1   
    15    10    12 1   
    16    11    15 1   
    17    12    16 1   
@<TRIPOS>SUBSTRUCTURE
     1 8HX         1 TEMP              0 ****  ****    0 ROOT
