@<TRIPOS>MOLECULE
8HY
   53    56     1     0     0
SMALL
abcg2


@<TRIPOS>ATOM
      1 N1           3.3670    -1.2800    -0.0750 ns         1 8HY      -0.504900
      2 C4           0.9940    -1.5950    -0.3520 ca         1 8HY      -0.171600
      3 C5          -0.0410    -2.5250    -0.3630 ca         1 8HY      -0.043500
      4 C6          -1.3650    -2.1430    -0.2250 ca         1 8HY      -0.156000
      5 C7           2.3940    -2.0810    -0.5360 c          1 8HY       0.615700
      6 C8           4.7740    -1.5900    -0.2240 c3         1 8HY       0.101000
      7 C10          7.1070    -0.6390    -0.1870 c3         1 8HY      -0.028100
      8 C13          8.9650     2.6110    -0.8250 ca         1 8HY      -0.109000
      9 C15          9.1760     2.0640     1.5020 ca         1 8HY      -0.109000
     10 C17         -5.4540     0.9470    -0.5660 cc         1 8HY      -0.173900
     11 C20         -8.7970     2.5960    -0.5070 ca         1 8HY      -0.114000
     12 C21         -9.4180     1.6630     0.3840 ca         1 8HY      -0.114000
     13 C22         -8.7400     0.5960     0.8870 ca         1 8HY      -0.074000
     14 C24         -6.4440    -0.5420     0.8160 cc         1 8HY      -0.173900
     15 O1           2.6250    -3.1500    -1.0870 o          1 8HY      -0.601100
     16 C9           5.6220    -0.3540     0.0290 c3         1 8HY      -0.093400
     17 C11          7.9490     0.5870     0.0290 ca         1 8HY      -0.082300
     18 C16          8.4350     0.9080     1.2950 ca         1 8HY      -0.107000
     19 C14          9.4440     2.9210     0.4420 ca         1 8HY      -0.110000
     20 C12          8.2240     1.4540    -1.0260 ca         1 8HY      -0.107000
     21 C3           0.6660    -0.2470    -0.2250 ca         1 8HY      -0.043500
     22 C2          -0.6510     0.1500    -0.0960 ca         1 8HY      -0.156000
     23 C1          -1.6810    -0.7910    -0.0900 ca         1 8HY       0.001000
     24 N           -2.9830    -0.2920     0.0100 ns         1 8HY      -0.144000
     25 C           -4.1130    -0.9880     0.2640 c          1 8HY       0.667100
     26 O           -4.1840    -2.1570     0.5570 o          1 8HY      -0.551100
     27 N2          -5.2870    -0.2010     0.1690 n          1 8HY      -0.135200
     28 C23         -7.3820     0.4170     0.5060 ca         1 8HY      -0.088000
     29 C18         -6.7540     1.3610    -0.3800 ca         1 8HY      -0.088000
     30 C19         -7.4980     2.4610    -0.8890 ca         1 8HY      -0.074000
     31 H1           3.1260    -0.5000     0.5140 hn         1 8HY       0.313500
     32 H2           0.1840    -3.5770    -0.4780 ha         1 8HY       0.128500
     33 H3          -2.1280    -2.9030    -0.2330 ha         1 8HY       0.132500
     34 H4           5.0680    -2.3930     0.4610 h1         1 8HY       0.053200
     35 H5           4.9500    -1.9570    -1.2360 h1         1 8HY       0.053200
     36 H6           7.4270    -1.4370     0.4880 hc         1 8HY       0.050700
     37 H7           7.2560    -1.0110    -1.2040 hc         1 8HY       0.050700
     38 H9           9.5490     2.2940     2.4930 ha         1 8HY       0.112500
     39 H10         -4.6820     1.3460    -1.2030 h4         1 8HY       0.229500
     40 H11         -9.3840     3.4250    -0.8810 ha         1 8HY       0.109000
     41 H12        -10.4540     1.8210     0.6590 ha         1 8HY       0.109000
     42 H13         -9.2200    -0.1030     1.5590 ha         1 8HY       0.112500
     43 H14         -6.4990    -1.4080     1.4540 h4         1 8HY       0.229500
     44 H15          5.3030     0.4510    -0.6400 hc         1 8HY       0.047200
     45 H16          5.4650     0.0040     1.0510 hc         1 8HY       0.047200
     46 H17          8.2340     0.2440     2.1280 ha         1 8HY       0.110500
     47 H18         10.0240     3.8200     0.6020 ha         1 8HY       0.113000
     48 H19          7.8580     1.2170    -2.0190 ha         1 8HY       0.110500
     49 H20          1.4280     0.5200    -0.2510 ha         1 8HY       0.128500
     50 H21         -0.8810     1.2060    -0.0110 ha         1 8HY       0.132500
     51 H22         -3.0540     0.7150    -0.0090 hn         1 8HY       0.169000
     52 H23         -7.0360     3.1720    -1.5610 ha         1 8HY       0.112500
     53 H8           9.1720     3.2690    -1.6590 ha         1 8HY       0.112500
@<TRIPOS>BOND
     1     1     5 1   
     2     1     6 1   
     3     1    31 1   
     4     2     3 ar  
     5     2     5 1   
     6     2    21 ar  
     7     3     4 ar  
     8     3    32 1   
     9     4    23 ar  
    10     4    33 1   
    11     5    15 2   
    12     6    16 1   
    13     6    34 1   
    14     6    35 1   
    15     7    16 1   
    16     7    17 1   
    17     7    36 1   
    18     7    37 1   
    19     8    19 ar  
    20     8    20 ar  
    21     8    53 1   
    22     9    18 ar  
    23     9    19 ar  
    24     9    38 1   
    25    10    27 1   
    26    10    29 2   
    27    10    39 1   
    28    11    12 ar  
    29    11    30 ar  
    30    11    40 1   
    31    12    13 ar  
    32    12    41 1   
    33    13    28 ar  
    34    13    42 1   
    35    14    27 1   
    36    14    28 2   
    37    14    43 1   
    38    16    44 1   
    39    16    45 1   
    40    17    18 ar  
    41    17    20 ar  
    42    18    46 1   
    43    19    47 1   
    44    20    48 1   
    45    21    22 ar  
    46    21    49 1   
    47    22    23 ar  
    48    22    50 1   
    49    23    24 1   
    50    24    25 1   
    51    24    51 1   
    52    25    26 2   
    53    25    27 1   
    54    28    29 ar  
    55    29    30 ar  
    56    30    52 1   
@<TRIPOS>SUBSTRUCTURE
     1 8HY         1 TEMP              0 ****  ****    0 ROOT
