@<TRIPOS>MOLECULE
8HY
   53    56     1     0     0
SMALL
No Charge or Current Charge


@<TRIPOS>ATOM
      1 N1           3.4290    -1.3460    -0.1120 ns         1 8HY      -0.504900
      2 C4           1.0120    -1.8310    -0.1260 ca         1 8HY      -0.171600
      3 C5          -0.0370    -2.7750    -0.1800 ca         1 8HY      -0.043500
      4 C6          -1.3810    -2.3660    -0.1430 ca         1 8HY      -0.156000
      5 C7           2.4480    -2.3120    -0.1680 c          1 8HY       0.615700
      6 C8           4.8650    -1.6260    -0.1410 c3         1 8HY       0.101000
      7 C10          7.2170    -0.5920    -0.0890 c3         1 8HY      -0.028100
      8 C13          9.1170     2.5820    -1.1120 ca         1 8HY      -0.109000
      9 C15          9.1350     2.4200     1.3160 ca         1 8HY      -0.109000
     10 C17         -5.4130     1.1250    -0.0230 cc         1 8HY      -0.173900
     11 C20         -8.7440     2.9700    -0.0050 ca         1 8HY      -0.114000
     12 C21         -9.5670     1.8220     0.0880 ca         1 8HY      -0.114000
     13 C22         -8.9940     0.5330     0.1390 ca         1 8HY      -0.074000
     14 C24         -6.7480    -0.7350     0.1290 cc         1 8HY      -0.173900
     15 O1           2.7360    -3.4980    -0.2480 o          1 8HY      -0.601100
     16 C9           5.6960    -0.3320    -0.0620 c3         1 8HY      -0.093400
     17 C11          8.0190     0.7000    -0.0100 ca         1 8HY      -0.082300
     18 C16          8.3990     1.2250     1.2420 ca         1 8HY      -0.107000
     19 C14          9.4950     3.0990     0.1390 ca         1 8HY      -0.110000
     20 C12          8.3810     1.3860    -1.1860 ca         1 8HY      -0.107000
     21 C3           0.6750    -0.4590    -0.0360 ca         1 8HY      -0.043500
     22 C2          -0.6710    -0.0560     0.0010 ca         1 8HY      -0.156000
     23 C1          -1.7120    -0.9990    -0.0480 ca         1 8HY       0.001000
     24 N           -3.0470    -0.5080    -0.0090 ns         1 8HY      -0.144000
     25 C           -4.2810    -1.1460     0.0630 c          1 8HY       0.667100
     26 O           -4.4090    -2.3640     0.1350 o          1 8HY      -0.551100
     27 N2          -5.4170    -0.2850     0.0560 n          1 8HY      -0.135200
     28 C23         -7.5980     0.4340     0.0950 ca         1 8HY      -0.088000
     29 C18         -6.7960     1.5510     0.0040 ca         1 8HY      -0.088000
     30 C19         -7.3380     2.8420    -0.0490 ca         1 8HY      -0.074000
     31 H1           3.1260    -0.3840    -0.0470 hn         1 8HY       0.313500
     32 H2           0.1860    -3.8370    -0.2530 ha         1 8HY       0.128500
     33 H3          -2.1470    -3.1330    -0.1950 ha         1 8HY       0.132500
     34 H4           5.1160    -2.2780     0.7060 h1         1 8HY       0.053200
     35 H5           5.1030    -2.1610    -1.0710 h1         1 8HY       0.053200
     36 H6           7.4850    -1.2530     0.7440 hc         1 8HY       0.050700
     37 H7           7.4730    -1.1370    -1.0070 hc         1 8HY       0.050700
     38 H9           9.4260     2.8200     2.2840 ha         1 8HY       0.112500
     39 H10         -4.4710     1.6580    -0.0890 h4         1 8HY       0.229500
     40 H11         -9.1960     3.9590    -0.0440 ha         1 8HY       0.109000
     41 H12        -10.6490     1.9330     0.1210 ha         1 8HY       0.109000
     42 H13         -9.6170    -0.3560     0.2110 ha         1 8HY       0.112500
     43 H14         -6.9250    -1.8050     0.1950 h4         1 8HY       0.229500
     44 H15          5.4280     0.3210    -0.9010 hc         1 8HY       0.047200
     45 H16          5.4410     0.2050     0.8600 hc         1 8HY       0.047200
     46 H17          8.1230     0.7070     2.1570 ha         1 8HY       0.110500
     47 H18         10.0650     4.0240     0.1960 ha         1 8HY       0.113000
     48 H19          8.0900     0.9940    -2.1580 ha         1 8HY       0.110500
     49 H20          1.4420     0.3100     0.0070 ha         1 8HY       0.128500
     50 H21         -0.9020     1.0050     0.0700 ha         1 8HY       0.132500
     51 H22         -3.1070     0.4990    -0.0440 hn         1 8HY       0.169000
     52 H23         -6.6970     3.7170    -0.1210 ha         1 8HY       0.112500
     53 H8           9.3930     3.1070    -2.0230 ha         1 8HY       0.112500
@<TRIPOS>BOND
     1     1     5 1   
     2     1     6 1   
     3     1    31 1   
     4     2     3 ar  
     5     2     5 1   
     6     2    21 ar  
     7     3     4 ar  
     8     3    32 1   
     9     4    23 ar  
    10     4    33 1   
    11     5    15 2   
    12     6    16 1   
    13     6    34 1   
    14     6    35 1   
    15     7    16 1   
    16     7    17 1   
    17     7    36 1   
    18     7    37 1   
    19     8    19 ar  
    20     8    20 ar  
    21     8    53 1   
    22     9    18 ar  
    23     9    19 ar  
    24     9    38 1   
    25    10    27 1   
    26    10    29 2   
    27    10    39 1   
    28    11    12 ar  
    29    11    30 ar  
    30    11    40 1   
    31    12    13 ar  
    32    12    41 1   
    33    13    28 ar  
    34    13    42 1   
    35    14    27 1   
    36    14    28 2   
    37    14    43 1   
    38    16    44 1   
    39    16    45 1   
    40    17    18 ar  
    41    17    20 ar  
    42    18    46 1   
    43    19    47 1   
    44    20    48 1   
    45    21    22 ar  
    46    21    49 1   
    47    22    23 ar  
    48    22    50 1   
    49    23    24 1   
    50    24    25 1   
    51    24    51 1   
    52    25    26 2   
    53    25    27 1   
    54    28    29 ar  
    55    29    30 ar  
    56    30    52 1   
@<TRIPOS>SUBSTRUCTURE
     1 8HY         1 TEMP              0 ****  ****    0 ROOT
