@<TRIPOS>MOLECULE
8HZ
   44    47     1     0     0
SMALL
bcc


@<TRIPOS>ATOM
      1 C1          -0.7740    -2.7550     0.0090 cc         1 8HZ      -0.013300
      2 C2          -1.4330    -3.9780     0.2860 cc         1 8HZ      -0.039300
      3 C5          -3.3960    -3.0410    -0.7960 cd         1 8HZ      -0.161000
      4 C6          -2.7330    -4.0980    -0.1210 cd         1 8HZ      -0.126000
      5 C7           0.5980    -1.1210    -0.1960 cd         1 8HZ       0.154400
      6 C8           1.8550    -0.3890    -0.0280 ca         1 8HZ      -0.061800
      7 C9           2.8500    -0.9070     0.8030 ca         1 8HZ      -0.062500
      8 C10          4.0500    -0.2440     0.9950 ca         1 8HZ      -0.202500
      9 C11          2.1150     0.8250    -0.6700 ca         1 8HZ      -0.062500
     10 C12          3.3100     1.4960    -0.4860 ca         1 8HZ      -0.202500
     11 C14         -1.3350     1.6150    -0.6980 ca         1 8HZ       0.183600
     12 C15         -1.4420     1.6260     0.6920 ca         1 8HZ      -0.190500
     13 C17         -1.6030     2.7970    -1.3940 ca         1 8HZ      -0.190500
     14 C18         -1.9700     3.9460    -0.7150 ca         1 8HZ      -0.087500
     15 C19         -2.0820     3.9720     0.6750 ca         1 8HZ      -0.119300
     16 C20         -2.4990     5.2190     1.4000 c3         1 8HZ      -0.037800
     17 C13          4.2890     0.9670     0.3520 ca         1 8HZ       0.146100
     18 C           -0.5730    -0.7010    -0.7980 cc         1 8HZ       0.016900
     19 N2          -0.9680     0.4760    -1.3990 nu         1 8HZ      -0.659400
     20 C16         -1.8080     2.7890     1.3550 ca         1 8HZ      -0.087500
     21 N1           0.4580    -2.3800     0.2940 nd         1 8HZ      -0.304600
     22 N           -1.4500    -1.7590    -0.6550 na         1 8HZ       0.026700
     23 C4          -2.7460    -1.8810    -1.0580 cc         1 8HZ      -0.073300
     24 C3          -0.6830    -5.0540     1.0020 c3         1 8HZ      -0.037800
     25 H1          -4.4230    -3.1530    -1.1090 ha         1 8HZ       0.148000
     26 H2          -3.2710    -5.0170     0.0740 ha         1 8HZ       0.141000
     27 H3           2.6820    -1.8470     1.3120 ha         1 8HZ       0.143500
     28 H4           4.8000    -0.6740     1.6500 ha         1 8HZ       0.138000
     29 H5           1.3830     1.2600    -1.3350 ha         1 8HZ       0.143500
     30 H6           3.4880     2.4350    -0.9950 ha         1 8HZ       0.138000
     31 H7          -1.2330     0.7300     1.2640 ha         1 8HZ       0.135000
     32 H8          -1.5210     2.8150    -2.4750 ha         1 8HZ       0.135000
     33 H9          -2.1690     4.8460    -1.2860 ha         1 8HZ       0.127500
     34 H10         -3.5690     5.4080     1.2880 hc         1 8HZ       0.038367
     35 H11         -2.2930     5.1470     2.4670 hc         1 8HZ       0.038367
     36 H12         -1.9780     6.0990     1.0190 hc         1 8HZ       0.038367
     37 H13          6.0340     1.1950     1.0970 ho         1 8HZ       0.425000
     38 H14         -0.8850     0.5560    -2.4010 hn         1 8HZ       0.443800
     39 H15         -1.8790     2.7670     2.4360 ha         1 8HZ       0.127500
     40 H17         -3.1800    -1.0350    -1.5700 h4         1 8HZ       0.170000
     41 H18         -0.3660    -4.7190     1.9910 hc         1 8HZ       0.052033
     42 H19         -1.2980    -5.9440     1.1240 hc         1 8HZ       0.052033
     43 H20          0.2200    -5.3330     0.4580 hc         1 8HZ       0.052033
     44 O            5.4340     1.6600     0.5020 oh         1 8HZ      -0.495100
@<TRIPOS>BOND
     1     1     2 1   
     2     1    21 2   
     3     1    22 1   
     4     2     4 2   
     5     2    24 1   
     6     3     4 1   
     7     3    23 2   
     8     3    25 1   
     9     4    26 1   
    10     5     6 1   
    11     5    18 2   
    12     5    21 1   
    13     6     7 ar  
    14     6     9 ar  
    15     7     8 ar  
    16     7    27 1   
    17     8    17 ar  
    18     8    28 1   
    19     9    10 ar  
    20     9    29 1   
    21    10    17 ar  
    22    10    30 1   
    23    11    12 ar  
    24    11    13 ar  
    25    11    19 1   
    26    12    20 ar  
    27    12    31 1   
    28    13    14 ar  
    29    13    32 1   
    30    14    15 ar  
    31    14    33 1   
    32    15    16 1   
    33    15    20 ar  
    34    16    34 1   
    35    16    35 1   
    36    16    36 1   
    37    17    44 1   
    38    18    19 1   
    39    18    22 1   
    40    19    38 1   
    41    20    39 1   
    42    22    23 1   
    43    23    40 1   
    44    24    41 1   
    45    24    42 1   
    46    24    43 1   
    47    37    44 1   
@<TRIPOS>SUBSTRUCTURE
     1 8HZ         1 TEMP              0 ****  ****    0 ROOT
