@<TRIPOS>MOLECULE
8HZ
   44    47     1     0     0
SMALL
No Charge or Current Charge


@<TRIPOS>ATOM
      1 C1          -0.7670    -2.9130    -0.0430 cc         1 8HZ      -0.064000
      2 C2          -1.3750    -4.1950     0.1310 cc         1 8HZ      -0.039300
      3 C5          -3.3480    -3.2080    -0.9260 cd         1 8HZ      -0.143000
      4 C6          -2.6680    -4.3330    -0.3280 cd         1 8HZ      -0.108000
      5 C7           0.5160    -1.1500    -0.0790 cd         1 8HZ       0.154400
      6 C8           1.7790    -0.3860     0.1250 ca         1 8HZ      -0.061800
      7 C9           2.8220    -0.9460     0.9020 ca         1 8HZ      -0.044500
      8 C10          4.0310    -0.2530     1.1010 ca         1 8HZ      -0.184500
      9 C11          2.0040     0.8760    -0.4730 ca         1 8HZ      -0.044500
     10 C12          3.2140     1.5650    -0.2720 ca         1 8HZ      -0.184500
     11 C14         -1.3870     1.6960    -0.6180 ca         1 8HZ       0.322000
     12 C15         -1.0420     1.9340     0.7240 ca         1 8HZ      -0.172500
     13 C17         -2.0320     2.7010    -1.3540 ca         1 8HZ      -0.172500
     14 C18         -2.3310     3.9390    -0.7570 ca         1 8HZ      -0.069500
     15 C19         -1.9860     4.1780     0.5860 ca         1 8HZ      -0.119300
     16 C20         -2.3040     5.5180     1.2330 c3         1 8HZ      -0.037800
     17 C13          4.2230     1.0040     0.5170 ca         1 8HZ       0.146100
     18 C           -0.6760    -0.7390    -0.6820 cc         1 8HZ       0.016900
     19 N2          -1.0970     0.4740    -1.2290 nu         1 8HZ      -0.853000
     20 C16         -1.3380     3.1700     1.3250 ca         1 8HZ      -0.069500
     21 N1           0.4340    -2.4910     0.3090 nd         1 8HZ      -0.304600
     22 N           -1.4230    -1.8940    -0.6670 na         1 8HZ       0.128100
     23 C4          -2.7560    -1.9580    -1.0890 cc         1 8HZ      -0.106000
     24 C3          -0.5970    -5.3010     0.7970 c3         1 8HZ      -0.037800
     25 H1          -4.3740    -3.3400    -1.2560 ha         1 8HZ       0.130000
     26 H2          -3.1840    -5.2830    -0.2250 ha         1 8HZ       0.123000
     27 H3           2.7010    -1.9190     1.3720 ha         1 8HZ       0.125500
     28 H4           4.8100    -0.7040     1.7110 ha         1 8HZ       0.120000
     29 H5           1.2610     1.3330    -1.1140 ha         1 8HZ       0.125500
     30 H6           3.3660     2.5350    -0.7390 ha         1 8HZ       0.120000
     31 H7          -0.5450     1.1640     1.3050 ha         1 8HZ       0.117000
     32 H8          -2.3020     2.5290    -2.3920 ha         1 8HZ       0.117000
     33 H9          -2.8280     4.7110    -1.3400 ha         1 8HZ       0.109500
     34 H10         -3.2010     5.9720     0.7940 hc         1 8HZ       0.038367
     35 H11         -2.4830     5.4100     2.3090 hc         1 8HZ       0.038367
     36 H12         -1.4740     6.2220     1.1010 hc         1 8HZ       0.038367
     37 H13          5.9750     1.1380     1.2740 ho         1 8HZ       0.464000
     38 H14         -1.5420     0.3780    -2.1450 hn         1 8HZ       0.499000
     39 H15         -1.0630     3.3430     2.3630 ha         1 8HZ       0.109500
     40 H17         -3.2230    -1.0780    -1.5100 h4         1 8HZ       0.152000
     41 H18         -0.3160    -5.0200     1.8190 hc         1 8HZ       0.052033
     42 H19         -1.1830    -6.2260     0.8540 hc         1 8HZ       0.052033
     43 H20          0.3220    -5.5210     0.2410 hc         1 8HZ       0.052033
     44 O            5.3910     1.6800     0.7030 oh         1 8HZ      -0.534100
@<TRIPOS>BOND
     1     1     2 1   
     2     1    21 2   
     3     1    22 1   
     4     2     4 2   
     5     2    24 1   
     6     3     4 1   
     7     3    23 2   
     8     3    25 1   
     9     4    26 1   
    10     5     6 1   
    11     5    18 2   
    12     5    21 1   
    13     6     7 ar  
    14     6     9 ar  
    15     7     8 ar  
    16     7    27 1   
    17     8    17 ar  
    18     8    28 1   
    19     9    10 ar  
    20     9    29 1   
    21    10    17 ar  
    22    10    30 1   
    23    11    12 ar  
    24    11    13 ar  
    25    11    19 1   
    26    12    20 ar  
    27    12    31 1   
    28    13    14 ar  
    29    13    32 1   
    30    14    15 ar  
    31    14    33 1   
    32    15    16 1   
    33    15    20 ar  
    34    16    34 1   
    35    16    35 1   
    36    16    36 1   
    37    17    44 1   
    38    18    19 1   
    39    18    22 1   
    40    19    38 1   
    41    20    39 1   
    42    22    23 1   
    43    23    40 1   
    44    24    41 1   
    45    24    42 1   
    46    24    43 1   
    47    37    44 1   
@<TRIPOS>SUBSTRUCTURE
     1 8HZ         1 TEMP              0 ****  ****    0 ROOT
