@<TRIPOS>MOLECULE
8I0
   98   101     1     0     0
SMALL
No Charge or Current Charge


@<TRIPOS>ATOM
      1 C1         -12.9620    -9.8020   -16.8040 c          1 8I0       0.608100
      2 C10        -16.8190   -12.0180   -19.5370 ca         1 8I0      -0.109000
      3 C11         -9.2050   -18.0320   -19.1720 c3         1 8I0       0.064700
      4 C12         -9.3790   -16.8280   -18.1860 c          1 8I0       0.592100
      5 C13         -7.2490   -15.7110   -18.9890 c5         1 8I0       0.136000
      6 C14         -8.8630   -14.4360   -17.5730 c5         1 8I0       0.061700
      7 C15        -10.1820   -13.7080   -17.9850 c          1 8I0       0.598100
      8 C16         -6.6410   -14.3400   -18.6640 cx         1 8I0      -0.124700
      9 C17        -11.8330   -12.1030   -16.9420 c3         1 8I0       0.072700
     10 C18         -6.3040   -14.0540   -17.2080 cx         1 8I0      -0.071000
     11 C19        -12.7890   -12.7560   -15.9060 c3         1 8I0      -0.084400
     12 C2         -15.7700   -10.1060   -18.4380 ca         1 8I0      -0.100300
     13 C20        -13.0910   -14.2700   -16.1260 c5         1 8I0      -0.155700
     14 C21        -13.8760   -14.6070   -17.4290 c5         1 8I0      -0.090400
     15 C22        -15.3440   -14.3830   -16.9750 c5         1 8I0       0.095000
     16 C23         -6.2470   -15.1600   -16.1400 c3         1 8I0      -0.069100
     17 C24        -14.0300   -14.7800   -15.0290 c          1 8I0       0.564000
     18 C25         -5.2250   -13.0120   -16.9160 c3         1 8I0      -0.069100
     19 C27         -8.5640   -20.2960   -14.2590 c3         1 8I0      -0.104767
     20 C28         -6.9450   -21.6450   -15.6880 c3         1 8I0      -0.104767
     21 C29         -9.2250   -22.5670   -15.1330 c3         1 8I0      -0.104767
     22 C3         -14.7140    -9.0100   -18.4240 c3         1 8I0       0.144300
     23 C30        -10.1240   -17.9750   -20.4470 c3         1 8I0      -0.045000
     24 C31         -9.7520   -16.7560   -21.3340 c3         1 8I0      -0.088767
     25 C32        -11.6260   -17.8640   -20.0590 c3         1 8I0      -0.088767
     26 C33        -15.8490   -11.0010   -19.5240 ca         1 8I0      -0.102000
     27 C34         -7.6130   -13.5670   -17.8140 cx         1 8I0      -0.138700
     28 C4         -16.6670   -10.2470   -17.3610 ca         1 8I0      -0.102000
     29 C5         -17.6390   -11.2630   -17.3750 ca         1 8I0      -0.109000
     30 C6         -17.7170   -12.1470   -18.4640 ca         1 8I0      -0.109000
     31 C7          -8.4310   -21.2780   -15.4500 c3         1 8I0       0.151400
     32 C8         -11.6130   -10.5780   -16.7160 c3         1 8I0       0.073300
     33 N10         -9.3940   -19.2620   -18.3930 ns         1 8I0      -0.501900
     34 N13         -8.6040   -15.6630   -18.3860 n          1 8I0      -0.387800
     35 N16        -10.5520   -12.8310   -16.9810 ns         1 8I0      -0.515900
     36 N2         -13.4020    -9.5560   -18.0850 ns         1 8I0      -0.490900
     37 N23        -15.2730   -14.8600   -15.5960 ns         1 8I0      -0.513900
     38 N8          -9.0200   -20.6970   -16.6630 ns         1 8I0      -0.514900
     39 O1         -10.6310   -10.0840   -17.6650 oh         1 8I0      -0.661000
     40 O26        -13.7590   -15.2300   -13.9280 o          1 8I0      -0.552000
     41 O29         -7.7160   -18.8190   -16.9540 o          1 8I0      -0.661100
     42 O33        -10.2360   -16.8370   -17.3020 o          1 8I0      -0.624100
     43 O38        -10.8110   -13.8370   -19.0270 o          1 8I0      -0.592100
     44 O5         -13.5790    -9.4210   -15.8170 o          1 8I0      -0.597100
     45 H1         -16.8750   -12.7050   -20.3790 ha         1 8I0       0.110500
     46 H2          -8.1640   -18.0400   -19.5140 h1         1 8I0       0.079700
     47 H3          -7.3150   -15.8650   -20.0730 h1         1 8I0       0.062700
     48 H4          -6.6550   -16.5380   -18.5780 h1         1 8I0       0.062700
     49 H5          -8.9690   -14.6990   -16.5120 h1         1 8I0       0.085700
     50 H6          -6.0790   -13.8120   -19.4320 hc         1 8I0       0.098700
     51 H7         -12.3100   -12.1990   -17.9270 h1         1 8I0       0.088700
     52 H8         -12.3560   -12.6190   -14.9060 hc         1 8I0       0.068200
     53 H9         -13.7370   -12.2050   -15.8960 hc         1 8I0       0.068200
     54 H10        -12.1430   -14.8100   -16.0380 hc         1 8I0       0.105700
     55 H11        -13.7180   -15.6540   -17.7140 hc         1 8I0       0.061200
     56 H12        -13.6030   -13.9940   -18.2940 hc         1 8I0       0.061200
     57 H13        -15.6170   -13.3200   -17.0140 h1         1 8I0       0.042700
     58 H14        -16.0580   -14.9490   -17.5890 h1         1 8I0       0.042700
     59 H15         -6.4140   -14.7420   -15.1410 hc         1 8I0       0.044200
     60 H16         -6.9860   -15.9550   -16.2810 hc         1 8I0       0.044200
     61 H17         -5.2610   -15.6420   -16.1360 hc         1 8I0       0.044200
     62 H18         -5.3740   -12.5560   -15.9300 hc         1 8I0       0.044200
     63 H19         -4.2260   -13.4640   -16.9320 hc         1 8I0       0.044200
     64 H20         -5.2320   -12.2040   -17.6570 hc         1 8I0       0.044200
     65 H21        -10.2590   -20.1580   -20.7660 hc         1 8I0       0.040033
     66 H22        -10.4930   -19.2040   -22.2360 hc         1 8I0       0.040033
     67 H23         -8.8660   -19.3960   -21.5590 hc         1 8I0       0.040033
     68 H24         -9.6090   -19.9970   -14.1150 hc         1 8I0       0.044367
     69 H25         -8.2150   -20.7630   -13.3300 hc         1 8I0       0.044367
     70 H26         -7.9700   -19.3890   -14.4150 hc         1 8I0       0.044367
     71 H27         -6.8410   -22.3040   -16.5590 hc         1 8I0       0.044367
     72 H28         -6.3320   -20.7530   -15.8620 hc         1 8I0       0.044367
     73 H29         -6.5300   -22.1660   -14.8180 hc         1 8I0       0.044367
     74 H30        -10.2850   -22.3430   -14.9630 hc         1 8I0       0.044367
     75 H31         -9.1570   -23.2840   -15.9600 hc         1 8I0       0.044367
     76 H32         -8.8350   -23.0550   -14.2310 hc         1 8I0       0.044367
     77 H33        -14.6560    -8.5410   -19.4150 h1         1 8I0       0.065700
     78 H34        -14.9850    -8.2280   -17.7010 h1         1 8I0       0.065700
     79 H35         -9.9020   -15.8100   -20.8020 hc         1 8I0       0.040033
     80 H36         -8.7050   -16.8090   -21.6550 hc         1 8I0       0.040033
     81 H37        -10.3740   -16.7250   -22.2370 hc         1 8I0       0.040033
     82 H38        -11.8340   -16.9250   -19.5320 hc         1 8I0       0.040033
     83 H39        -12.2620   -17.8860   -20.9520 hc         1 8I0       0.040033
     84 H40        -11.9340   -18.6930   -19.4100 hc         1 8I0       0.040033
     85 H41        -15.1570   -10.9080   -20.3590 ha         1 8I0       0.111000
     86 H42         -7.7240   -12.5000   -17.9920 hc         1 8I0       0.095700
     87 H43        -16.6110    -9.5700   -16.5110 ha         1 8I0       0.111000
     88 H44        -18.3300   -11.3660   -16.5410 ha         1 8I0       0.110500
     89 H45        -18.4680   -12.9340   -18.4740 ha         1 8I0       0.112000
     90 H46        -11.2380   -10.4360   -15.6930 h1         1 8I0       0.067700
     91 H47        -10.2110   -19.8230   -18.5650 hn         1 8I0       0.311500
     92 H48         -9.9590   -12.8040   -16.1580 hn         1 8I0       0.319500
     93 H49        -12.7840    -9.8500   -18.8320 hn         1 8I0       0.335500
     94 H50        -16.0380   -15.2440   -15.0540 hn         1 8I0       0.325500
     95 H51         -9.7960   -21.1920   -17.0790 hn         1 8I0       0.304500
     96 H52         -9.9150   -10.7560   -17.7050 ho         1 8I0       0.462000
     97 C26         -9.9230   -19.2600   -21.3000 c3         1 8I0      -0.088767
     98 C9          -8.6310   -19.5450   -17.3000 c          1 8I0       0.651100
@<TRIPOS>BOND
     1     1    32 1   
     2     1    36 1   
     3     1    44 2   
     4     2    26 ar  
     5     2    30 ar  
     6     2    45 1   
     7     3     4 1   
     8     3    23 1   
     9     3    33 1   
    10     3    46 1   
    11     4    34 1   
    12     4    42 2   
    13     5     8 1   
    14     5    34 1   
    15     5    47 1   
    16     5    48 1   
    17     6     7 1   
    18     6    27 1   
    19     6    34 1   
    20     6    49 1   
    21     7    35 1   
    22     7    43 2   
    23     8    10 1   
    24     8    27 1   
    25     8    50 1   
    26     9    11 1   
    27     9    32 1   
    28     9    35 1   
    29     9    51 1   
    30    10    16 1   
    31    10    18 1   
    32    10    27 1   
    33    11    13 1   
    34    11    52 1   
    35    11    53 1   
    36    12    22 1   
    37    12    26 ar  
    38    12    28 ar  
    39    13    14 1   
    40    13    17 1   
    41    13    54 1   
    42    14    15 1   
    43    14    55 1   
    44    14    56 1   
    45    15    37 1   
    46    15    57 1   
    47    15    58 1   
    48    16    59 1   
    49    16    60 1   
    50    16    61 1   
    51    17    37 1   
    52    17    40 2   
    53    18    62 1   
    54    18    63 1   
    55    18    64 1   
    56    19    31 1   
    57    19    68 1   
    58    19    69 1   
    59    19    70 1   
    60    20    31 1   
    61    20    71 1   
    62    20    72 1   
    63    20    73 1   
    64    21    31 1   
    65    21    74 1   
    66    21    75 1   
    67    21    76 1   
    68    22    36 1   
    69    22    77 1   
    70    22    78 1   
    71    23    24 1   
    72    23    25 1   
    73    23    97 1   
    74    24    79 1   
    75    24    80 1   
    76    24    81 1   
    77    25    82 1   
    78    25    83 1   
    79    25    84 1   
    80    26    85 1   
    81    27    86 1   
    82    28    29 ar  
    83    28    87 1   
    84    29    30 ar  
    85    29    88 1   
    86    30    89 1   
    87    31    38 1   
    88    32    39 1   
    89    32    90 1   
    90    33    91 1   
    91    33    98 1   
    92    35    92 1   
    93    36    93 1   
    94    37    94 1   
    95    38    95 1   
    96    38    98 1   
    97    39    96 1   
    98    41    98 2   
    99    65    97 1   
   100    66    97 1   
   101    67    97 1   
@<TRIPOS>SUBSTRUCTURE
     1 8I0         1 TEMP              0 ****  ****    0 ROOT
