@<TRIPOS>MOLECULE
8I0
   98   101     1     0     0
SMALL
bcc


@<TRIPOS>ATOM
      1 C1         -13.0840   -10.2480   -16.2620 c          1 8I0       0.675100
      2 C10        -17.0200    -9.1620   -20.3810 ca         1 8I0      -0.127000
      3 C11         -9.5530   -18.1380   -18.6950 c3         1 8I0       0.064700
      4 C12         -9.6700   -16.8640   -17.8520 c          1 8I0       0.659100
      5 C13         -7.8150   -15.7500   -19.1370 c5         1 8I0       0.136000
      6 C14         -8.9970   -14.6160   -17.3290 c5         1 8I0       0.061700
      7 C15        -10.3120   -13.9100   -17.6480 c          1 8I0       0.665100
      8 C16         -7.1200   -14.4390   -18.8770 cx         1 8I0      -0.124700
      9 C17        -12.1150   -12.5400   -16.6590 c3         1 8I0       0.072700
     10 C18         -6.4390   -14.2130   -17.5560 cx         1 8I0      -0.071000
     11 C19        -13.2380   -13.2770   -15.9330 c3         1 8I0      -0.084400
     12 C2         -15.2440    -9.4170   -18.7590 ca         1 8I0      -0.100300
     13 C20        -13.5150   -14.6710   -16.5030 c5         1 8I0      -0.155700
     14 C21        -14.1720   -14.6700   -17.8860 c5         1 8I0      -0.090400
     15 C22        -15.6730   -14.7280   -17.5890 c5         1 8I0       0.095000
     16 C23         -6.1050   -15.3480   -16.6180 c3         1 8I0      -0.069100
     17 C24        -14.5520   -15.3580   -15.6230 c          1 8I0       0.706500
     18 C25         -5.3920   -13.1220   -17.5460 c3         1 8I0      -0.069100
     19 C27         -7.0550   -19.9330   -14.2490 c3         1 8I0      -0.104767
     20 C28         -6.3840   -21.6020   -16.0080 c3         1 8I0      -0.104767
     21 C29         -8.2180   -22.1230   -14.4060 c3         1 8I0      -0.104767
     22 C3         -14.2450    -8.7620   -17.8310 c3         1 8I0       0.144300
     23 C30        -10.6960   -18.2820   -19.7390 c3         1 8I0      -0.045000
     24 C31        -10.6410   -17.1050   -20.7130 c3         1 8I0      -0.088767
     25 C32        -12.0920   -18.3330   -19.1130 c3         1 8I0      -0.088767
     26 C33        -16.0640    -8.6080   -19.5430 ca         1 8I0      -0.120000
     27 C34         -7.8470   -13.7340   -17.7680 cx         1 8I0      -0.138700
     28 C4         -15.3980   -10.7960   -18.8350 ca         1 8I0      -0.120000
     29 C5         -16.3520   -11.3550   -19.6780 ca         1 8I0      -0.127000
     30 C6         -17.1670   -10.5420   -20.4520 ca         1 8I0      -0.127000
     31 C7          -7.5510   -21.0100   -15.2140 c3         1 8I0       0.151400
     32 C8         -11.8510   -11.1280   -16.0830 c3         1 8I0       0.050100
     33 N10         -9.5120   -19.2840   -17.8220 ns         1 8I0      -0.568900
     34 N13         -8.8590   -15.8250   -18.1170 n          1 8I0      -0.454800
     35 N16        -10.8760   -13.2860   -16.5950 ns         1 8I0      -0.582900
     36 N2         -13.1500    -9.6100   -17.4400 ns         1 8I0      -0.557900
     37 N23        -15.7090   -15.3930   -16.3050 ns         1 8I0      -0.580900
     38 N8          -8.5900   -20.4860   -16.1050 ns         1 8I0      -0.581900
     39 O1         -10.7700   -10.5120   -16.7300 oh         1 8I0      -0.598800
     40 O26        -14.3710   -15.7720   -14.4900 o          1 8I0      -0.627500
     41 O29         -7.4210   -18.7970   -17.1020 o          1 8I0      -0.661100
     42 O33        -10.4880   -16.8060   -16.9400 o          1 8I0      -0.624100
     43 O38        -10.7510   -13.8700   -18.7830 o          1 8I0      -0.592100
     44 O5         -13.9440   -10.1820   -15.3980 o          1 8I0      -0.597100
     45 H1         -17.6450    -8.5160   -20.9840 ha         1 8I0       0.128500
     46 H2          -8.6240   -18.1230   -19.2680 h1         1 8I0       0.079700
     47 H3          -8.2410   -15.7480   -20.1420 h1         1 8I0       0.062700
     48 H4          -7.1420   -16.6070   -19.0580 h1         1 8I0       0.062700
     49 H5          -8.9430   -14.8520   -16.2610 h1         1 8I0       0.085700
     50 H6          -6.7630   -13.8950   -19.7430 hc         1 8I0       0.098700
     51 H7         -12.3640   -12.4270   -17.7160 h1         1 8I0       0.088700
     52 H8         -12.9760   -13.3640   -14.8740 hc         1 8I0       0.068200
     53 H9         -14.1520   -12.6810   -15.9790 hc         1 8I0       0.068200
     54 H10        -12.5970   -15.2630   -16.4890 hc         1 8I0       0.105700
     55 H11        -13.8690   -15.5600   -18.4390 hc         1 8I0       0.061200
     56 H12        -13.9130   -13.8060   -18.4970 hc         1 8I0       0.061200
     57 H13        -16.1120   -13.7280   -17.5270 h1         1 8I0       0.042700
     58 H14        -16.2260   -15.2900   -18.3420 h1         1 8I0       0.042700
     59 H15         -6.0150   -14.9740   -15.5970 hc         1 8I0       0.044200
     60 H16         -6.8310   -16.1590   -16.6070 hc         1 8I0       0.044200
     61 H17         -5.1410   -15.7840   -16.8900 hc         1 8I0       0.044200
     62 H18         -5.2900   -12.6930   -16.5480 hc         1 8I0       0.044200
     63 H19         -4.4180   -13.5180   -17.8400 hc         1 8I0       0.044200
     64 H20         -5.6430   -12.3120   -18.2320 hc         1 8I0       0.044200
     65 H21        -10.5590   -20.4630   -19.9140 hc         1 8I0       0.040033
     66 H22        -11.1800   -19.6470   -21.3450 hc         1 8I0       0.040033
     67 H23         -9.4570   -19.5840   -20.9740 hc         1 8I0       0.040033
     68 H24         -7.8880   -19.5050   -13.6890 hc         1 8I0       0.044367
     69 H25         -6.3600   -20.3720   -13.5330 hc         1 8I0       0.044367
     70 H26         -6.5390   -19.1280   -14.7680 hc         1 8I0       0.044367
     71 H27         -6.7330   -22.3900   -16.6770 hc         1 8I0       0.044367
     72 H28         -5.8750   -20.8460   -16.6050 hc         1 8I0       0.044367
     73 H29         -5.6510   -22.0410   -15.3290 hc         1 8I0       0.044367
     74 H30         -9.0610   -21.7390   -13.8280 hc         1 8I0       0.044367
     75 H31         -8.5850   -22.9210   -15.0560 hc         1 8I0       0.044367
     76 H32         -7.5050   -22.5640   -13.7100 hc         1 8I0       0.044367
     77 H33        -13.8380    -7.8700   -18.3110 h1         1 8I0       0.065700
     78 H34        -14.7560    -8.4210   -16.9300 h1         1 8I0       0.065700
     79 H35        -10.7940   -16.1440   -20.2190 hc         1 8I0       0.040033
     80 H36         -9.6880   -17.0690   -21.2420 hc         1 8I0       0.040033
     81 H37        -11.4260   -17.2140   -21.4630 hc         1 8I0       0.040033
     82 H38        -12.3630   -17.3980   -18.6250 hc         1 8I0       0.040033
     83 H39        -12.8270   -18.5170   -19.8990 hc         1 8I0       0.040033
     84 H40        -12.2090   -19.1370   -18.3840 hc         1 8I0       0.040033
     85 H41        -15.9490    -7.5300   -19.4990 ha         1 8I0       0.129000
     86 H42         -8.0250   -12.6650   -17.8000 hc         1 8I0       0.095700
     87 H43        -14.7680   -11.4510   -18.2460 ha         1 8I0       0.129000
     88 H44        -16.4550   -12.4320   -19.7290 ha         1 8I0       0.128500
     89 H45        -17.9080   -10.9780   -21.1090 ha         1 8I0       0.130000
     90 H46        -11.6780   -11.2200   -15.0020 h1         1 8I0       0.067700
     91 H47        -10.3960   -19.6820   -17.5470 hn         1 8I0       0.311500
     92 H48        -10.5140   -13.4930   -15.6750 hn         1 8I0       0.319500
     93 H49        -12.3750    -9.7090   -18.0780 hn         1 8I0       0.335500
     94 H50        -16.5700   -15.6940   -15.8760 hn         1 8I0       0.325500
     95 H51         -9.4080   -21.0670   -16.2000 hn         1 8I0       0.304500
     96 H52        -10.0300   -11.1310   -16.7430 ho         1 8I0       0.423000
     97 C26        -10.4560   -19.5710   -20.5320 c3         1 8I0      -0.088767
     98 C9          -8.4350   -19.4830   -17.0020 c          1 8I0       0.785100
@<TRIPOS>BOND
     1     1    32 1   
     2     1    36 1   
     3     1    44 2   
     4     2    26 ar  
     5     2    30 ar  
     6     2    45 1   
     7     3     4 1   
     8     3    23 1   
     9     3    33 1   
    10     3    46 1   
    11     4    34 1   
    12     4    42 2   
    13     5     8 1   
    14     5    34 1   
    15     5    47 1   
    16     5    48 1   
    17     6     7 1   
    18     6    27 1   
    19     6    34 1   
    20     6    49 1   
    21     7    35 1   
    22     7    43 2   
    23     8    10 1   
    24     8    27 1   
    25     8    50 1   
    26     9    11 1   
    27     9    32 1   
    28     9    35 1   
    29     9    51 1   
    30    10    16 1   
    31    10    18 1   
    32    10    27 1   
    33    11    13 1   
    34    11    52 1   
    35    11    53 1   
    36    12    22 1   
    37    12    26 ar  
    38    12    28 ar  
    39    13    14 1   
    40    13    17 1   
    41    13    54 1   
    42    14    15 1   
    43    14    55 1   
    44    14    56 1   
    45    15    37 1   
    46    15    57 1   
    47    15    58 1   
    48    16    59 1   
    49    16    60 1   
    50    16    61 1   
    51    17    37 1   
    52    17    40 2   
    53    18    62 1   
    54    18    63 1   
    55    18    64 1   
    56    19    31 1   
    57    19    68 1   
    58    19    69 1   
    59    19    70 1   
    60    20    31 1   
    61    20    71 1   
    62    20    72 1   
    63    20    73 1   
    64    21    31 1   
    65    21    74 1   
    66    21    75 1   
    67    21    76 1   
    68    22    36 1   
    69    22    77 1   
    70    22    78 1   
    71    23    24 1   
    72    23    25 1   
    73    23    97 1   
    74    24    79 1   
    75    24    80 1   
    76    24    81 1   
    77    25    82 1   
    78    25    83 1   
    79    25    84 1   
    80    26    85 1   
    81    27    86 1   
    82    28    29 ar  
    83    28    87 1   
    84    29    30 ar  
    85    29    88 1   
    86    30    89 1   
    87    31    38 1   
    88    32    39 1   
    89    32    90 1   
    90    33    91 1   
    91    33    98 1   
    92    35    92 1   
    93    36    93 1   
    94    37    94 1   
    95    38    95 1   
    96    38    98 1   
    97    39    96 1   
    98    41    98 2   
    99    65    97 1   
   100    66    97 1   
   101    67    97 1   
@<TRIPOS>SUBSTRUCTURE
     1 8I0         1 TEMP              0 ****  ****    0 ROOT
