@<TRIPOS>MOLECULE
8I1
   63    67     1     0     0
SMALL
No Charge or Current Charge


@<TRIPOS>ATOM
      1 C1          -6.0550     3.7920     0.5610 c3         1 8I1       0.142900
      2 N1          -0.8780    -1.6740    -0.6850 nb         1 8I1      -0.781000
      3 O1          -6.9800     2.6900     0.5660 os         1 8I1      -0.317100
      4 C2          -6.5830     1.3750     0.3750 ca         1 8I1       0.123100
      5 N2          -5.5690    -2.6450    -0.1830 nb         1 8I1      -0.668000
      6 C3          -5.2310     1.0260     0.1610 ca         1 8I1      -0.164000
      7 O3           3.7870     0.3810    -0.1520 os         1 8I1      -0.347100
      8 C4          -4.8550    -0.3270    -0.0300 ca         1 8I1      -0.069000
      9 N4           1.0570     2.7560    -0.9630 nb         1 8I1      -0.645000
     10 C5          -3.5070    -0.7260    -0.2490 ca         1 8I1       0.076000
     11 N5           6.0550    -0.3720     1.4170 n8         1 8I1      -0.990200
     12 C6          -2.4010     0.1520    -0.2940 ca         1 8I1      -0.209000
     13 C7          -1.0960    -0.3530    -0.5220 cp         1 8I1       0.474500
     14 C8          -1.9150    -2.4880    -0.6400 ca         1 8I1       0.661900
     15 C9          -3.2370    -2.0910    -0.4330 ca         1 8I1      -0.209000
     16 C10         -4.2870    -3.0120    -0.3890 ca         1 8I1       0.385900
     17 C11         -5.8550    -1.3370    -0.0070 ca         1 8I1       0.284000
     18 C12         -7.1950    -0.9790     0.2070 ca         1 8I1      -0.169000
     19 C13         -7.5700     0.3660     0.3980 ca         1 8I1       0.139100
     20 C14         -9.9650    -0.2210     0.6500 c3         1 8I1       0.142900
     21 C15          0.1150     0.5290    -0.5780 cp         1 8I1      -0.162500
     22 C16          1.4240     0.0290    -0.3340 ca         1 8I1      -0.075000
     23 C17          2.5260     0.8950    -0.4000 ca         1 8I1       0.085100
     24 C18          2.2920     2.2560    -0.7180 ca         1 8I1       0.260900
     25 C19          0.0050     1.9080    -0.8930 ca         1 8I1       0.315900
     26 C20          4.9680     1.2070    -0.2070 c3         1 8I1       0.117600
     27 C21          6.2080     0.3230     0.1110 c3         1 8I1       0.167500
     28 C22          7.5250     1.1420     0.0560 c3         1 8I1      -0.024100
     29 C23          8.7870     0.2890     0.1770 ca         1 8I1      -0.068300
     30 C24          9.1720    -0.5610    -0.8800 ca         1 8I1      -0.096500
     31 C25         10.3390    -1.3380    -0.7780 ca         1 8I1      -0.111000
     32 C26         11.1320    -1.2680     0.3790 ca         1 8I1      -0.109000
     33 C27         10.7580    -0.4200     1.4350 ca         1 8I1      -0.111000
     34 C28          9.5900     0.3570     1.3340 ca         1 8I1      -0.096500
     35 H1          -6.5890     4.7350     0.7310 h1         1 8I1       0.043033
     36 H1A         -5.3080     3.6770     1.3570 h1         1 8I1       0.043033
     37 H1B         -5.5380     3.8640    -0.4040 h1         1 8I1       0.043033
     38 H3          -4.4850     1.8090     0.1440 ha         1 8I1       0.123000
     39 HN3         -0.5250    -3.7700    -1.1520 hn         1 8I1       0.489000
     40 HN3A        -2.1190    -4.3790    -1.3010 hn         1 8I1       0.489000
     41 HN5A         5.0990    -0.7470     1.4560 hn         1 8I1       0.402000
     42 H6          -2.5230     1.2140    -0.1390 ha         1 8I1       0.127000
     43 H10         -4.1180    -4.0790    -0.5200 h4         1 8I1       0.009100
     44 H12         -7.9360    -1.7710     0.2200 ha         1 8I1       0.139000
     45 H14        -10.9190     0.2890     0.8290 h1         1 8I1       0.044367
     46 H14A       -10.0420    -0.7620    -0.3020 h1         1 8I1       0.044367
     47 H14B        -9.8120    -0.9470     1.4580 h1         1 8I1       0.044367
     48 H16          1.5860    -1.0180    -0.0880 ha         1 8I1       0.153000
     49 H18          3.1080     2.9740    -0.7830 h4         1 8I1       0.022100
     50 H19         -0.9620     2.3560    -1.1180 h4         1 8I1       0.021100
     51 H20          5.0840     1.6460    -1.2070 h1         1 8I1       0.039700
     52 H20A         4.9020     2.0240     0.5240 h1         1 8I1       0.039700
     53 H21          6.2580    -0.4460    -0.6740 h1         1 8I1       0.078700
     54 H22          7.5580     1.6880    -0.8950 hc         1 8I1       0.046200
     55 H22A         7.5040     1.9110     0.8390 hc         1 8I1       0.046200
     56 H24          8.5660    -0.6180    -1.7810 ha         1 8I1       0.108500
     57 H25         10.6290    -1.9920    -1.5980 ha         1 8I1       0.110500
     58 H26         12.0360    -1.8690     0.4570 ha         1 8I1       0.111000
     59 H27         11.3720    -0.3640     2.3310 ha         1 8I1       0.110500
     60 H28          9.3100     1.0110     2.1570 ha         1 8I1       0.108500
     61 O2          -8.8900     0.7340     0.6100 os         1 8I1      -0.317100
     62 N3          -1.4880    -3.7350    -0.8400 nv         1 8I1      -1.070900
     63 HN5          6.0620     0.3260     2.1680 hn         1 8I1       0.402000
@<TRIPOS>BOND
     1     1     3 1   
     2     1    35 1   
     3     1    36 1   
     4     1    37 1   
     5     2    13 ar  
     6     2    14 ar  
     7     3     4 1   
     8     4     6 ar  
     9     4    19 ar  
    10     5    16 ar  
    11     5    17 ar  
    12     6     8 ar  
    13     6    38 1   
    14     7    23 1   
    15     7    26 1   
    16     8    10 ar  
    17     8    17 ar  
    18     9    24 ar  
    19     9    25 ar  
    20    10    12 ar  
    21    10    15 ar  
    22    11    27 1   
    23    11    41 1   
    24    11    63 1   
    25    12    13 ar  
    26    12    42 1   
    27    13    21 1   
    28    14    15 ar  
    29    14    62 1   
    30    15    16 ar  
    31    16    43 1   
    32    17    18 ar  
    33    18    19 ar  
    34    18    44 1   
    35    19    61 1   
    36    20    45 1   
    37    20    46 1   
    38    20    47 1   
    39    20    61 1   
    40    21    22 ar  
    41    21    25 ar  
    42    22    23 ar  
    43    22    48 1   
    44    23    24 ar  
    45    24    49 1   
    46    25    50 1   
    47    26    27 1   
    48    26    51 1   
    49    26    52 1   
    50    27    28 1   
    51    27    53 1   
    52    28    29 1   
    53    28    54 1   
    54    28    55 1   
    55    29    30 ar  
    56    29    34 ar  
    57    30    31 ar  
    58    30    56 1   
    59    31    32 ar  
    60    31    57 1   
    61    32    33 ar  
    62    32    58 1   
    63    33    34 ar  
    64    33    59 1   
    65    34    60 1   
    66    39    62 1   
    67    40    62 1   
@<TRIPOS>SUBSTRUCTURE
     1 8I1         1 TEMP              0 ****  ****    0 ROOT
