@<TRIPOS>MOLECULE
8I1
   63    67     1     0     0
SMALL
bcc


@<TRIPOS>ATOM
      1 C1          -5.9990     3.7140     0.3120 c3         1 8I1       0.119700
      2 N1          -0.7830    -1.6420    -0.4720 nb         1 8I1      -0.781000
      3 O1          -6.9320     2.6510     0.3380 os         1 8I1      -0.293900
      4 C2          -6.4690     1.3990     0.2360 ca         1 8I1       0.123100
      5 N2          -5.4630    -2.6320    -0.0330 nb         1 8I1      -0.668000
      6 C3          -5.1500     1.0500     0.0950 ca         1 8I1      -0.182000
      7 O3           3.7320     0.3160    -0.1940 os         1 8I1      -0.323900
      8 C4          -4.7590    -0.3020    -0.0030 ca         1 8I1      -0.134300
      9 N4           1.0840     2.7320    -0.7630 nb         1 8I1      -0.645000
     10 C5          -3.3920    -0.7120    -0.1570 ca         1 8I1       0.076000
     11 N5           6.0120    -0.5030     1.3320 n8         1 8I1      -0.879800
     12 C6          -2.3080     0.1810    -0.2170 ca         1 8I1      -0.292300
     13 C7          -1.0390    -0.3280    -0.3810 cp         1 8I1       0.539800
     14 C8          -1.7740    -2.5090    -0.4060 ca         1 8I1       0.727200
     15 C9          -3.1350    -2.0890    -0.2500 ca         1 8I1      -0.339600
     16 C10         -4.2260    -2.9920    -0.1730 ca         1 8I1       0.451200
     17 C11         -5.7460    -1.3000     0.0490 ca         1 8I1       0.414600
     18 C12         -7.1010    -0.9350     0.1920 ca         1 8I1      -0.252300
     19 C13         -7.4710     0.3820     0.2830 ca         1 8I1       0.139100
     20 C14         -9.7710    -0.1220     0.4570 c3         1 8I1       0.119700
     21 C15          0.1460     0.5540    -0.4570 cp         1 8I1      -0.227800
     22 C16          1.4200     0.0330    -0.2950 ca         1 8I1      -0.093000
     23 C17          2.5240     0.8770    -0.3580 ca         1 8I1       0.019800
     24 C18          2.3030     2.2330    -0.5910 ca         1 8I1       0.326200
     25 C19          0.0390     1.9270    -0.7030 ca         1 8I1       0.381200
     26 C20          4.8810     1.1490    -0.1670 c3         1 8I1       0.094400
     27 C21          6.0950     0.2670     0.1070 c3         1 8I1       0.167500
     28 C22          7.3480     1.1500     0.1240 c3         1 8I1      -0.024100
     29 C23          8.6190     0.3520     0.1340 ca         1 8I1      -0.068300
     30 C24          9.1920    -0.0710    -1.0640 ca         1 8I1      -0.114500
     31 C25         10.3560    -0.8280    -1.0730 ca         1 8I1      -0.129000
     32 C26         10.9700    -1.1750     0.1240 ca         1 8I1      -0.127000
     33 C27         10.4090    -0.7570     1.3250 ca         1 8I1      -0.129000
     34 C28          9.2430    -0.0040     1.3270 ca         1 8I1      -0.114500
     35 H1          -6.5730     4.6310     0.4190 h1         1 8I1       0.043033
     36 H1A         -5.2830     3.6460     1.1350 h1         1 8I1       0.043033
     37 H1B         -5.4510     3.7490    -0.6330 h1         1 8I1       0.043033
     38 H3          -4.3960     1.8210     0.0540 ha         1 8I1       0.141000
     39 HN3         -0.4960    -4.0410    -0.7150 hn         1 8I1       0.433800
     40 HN3A        -2.1270    -4.5220    -0.6640 hn         1 8I1       0.433800
     41 HN5A         5.1830    -1.0830     1.3220 hn         1 8I1       0.346800
     42 H6          -2.4630     1.2430    -0.1190 ha         1 8I1       0.145000
     43 H10         -4.0540    -4.0630    -0.2290 h4         1 8I1       0.009100
     44 H12         -7.8300    -1.7340     0.2240 ha         1 8I1       0.157000
     45 H14        -10.6950     0.4410     0.5620 h1         1 8I1       0.044367
     46 H14A        -9.8180    -0.7100    -0.4630 h1         1 8I1       0.044367
     47 H14B        -9.6700    -0.8010     1.3070 h1         1 8I1       0.044367
     48 H16          1.5590    -1.0260    -0.1160 ha         1 8I1       0.171000
     49 H18          3.1200     2.9420    -0.6480 h4         1 8I1       0.022100
     50 H19         -0.9250     2.3910    -0.8750 h4         1 8I1       0.021100
     51 H20          4.9970     1.6680    -1.1250 h1         1 8I1       0.039700
     52 H20A         4.7820     1.9090     0.6190 h1         1 8I1       0.039700
     53 H21          6.1890    -0.4400    -0.7250 h1         1 8I1       0.078700
     54 H22          7.3340     1.8020    -0.7530 hc         1 8I1       0.046200
     55 H22A         7.3060     1.8060     1.0000 hc         1 8I1       0.046200
     56 H24          8.7240     0.1990    -2.0040 ha         1 8I1       0.126500
     57 H25         10.7870    -1.1410    -2.0150 ha         1 8I1       0.128500
     58 H26         11.8800    -1.7620     0.1210 ha         1 8I1       0.129000
     59 H27         10.8820    -1.0180     2.2630 ha         1 8I1       0.128500
     60 H28          8.8160     0.3170     2.2690 ha         1 8I1       0.126500
     61 O2          -8.7240     0.8290     0.4170 os         1 8I1      -0.293900
     62 N3          -1.4440    -3.8150    -0.4620 nv         1 8I1      -0.960500
     63 HN5          5.9140     0.1180     2.1270 hn         1 8I1       0.346800
@<TRIPOS>BOND
     1     1     3 1   
     2     1    35 1   
     3     1    36 1   
     4     1    37 1   
     5     2    13 ar  
     6     2    14 ar  
     7     3     4 1   
     8     4     6 ar  
     9     4    19 ar  
    10     5    16 ar  
    11     5    17 ar  
    12     6     8 ar  
    13     6    38 1   
    14     7    23 1   
    15     7    26 1   
    16     8    10 ar  
    17     8    17 ar  
    18     9    24 ar  
    19     9    25 ar  
    20    10    12 ar  
    21    10    15 ar  
    22    11    27 1   
    23    11    41 1   
    24    11    63 1   
    25    12    13 ar  
    26    12    42 1   
    27    13    21 1   
    28    14    15 ar  
    29    14    62 1   
    30    15    16 ar  
    31    16    43 1   
    32    17    18 ar  
    33    18    19 ar  
    34    18    44 1   
    35    19    61 1   
    36    20    45 1   
    37    20    46 1   
    38    20    47 1   
    39    20    61 1   
    40    21    22 ar  
    41    21    25 ar  
    42    22    23 ar  
    43    22    48 1   
    44    23    24 ar  
    45    24    49 1   
    46    25    50 1   
    47    26    27 1   
    48    26    51 1   
    49    26    52 1   
    50    27    28 1   
    51    27    53 1   
    52    28    29 1   
    53    28    54 1   
    54    28    55 1   
    55    29    30 ar  
    56    29    34 ar  
    57    30    31 ar  
    58    30    56 1   
    59    31    32 ar  
    60    31    57 1   
    61    32    33 ar  
    62    32    58 1   
    63    33    34 ar  
    64    33    59 1   
    65    34    60 1   
    66    39    62 1   
    67    40    62 1   
@<TRIPOS>SUBSTRUCTURE
     1 8I1         1 TEMP              0 ****  ****    0 ROOT
