@<TRIPOS>MOLECULE
8I2
  170   174     1     0     0
SMALL
No Charge or Current Charge


@<TRIPOS>ATOM
      1 C1         157.2470   162.9220   132.1450 c3         1 8I2      -0.118100
      2 C12        161.3920   156.3560   134.1480 c3         1 8I2       0.099800
      3 C14        160.6280   155.1260   133.5630 c          1 8I2       0.595100
      4 C17        159.8950   153.7250   131.5730 c3         1 8I2       0.067700
      5 C19        158.4130   154.1950   131.4980 c          1 8I2       0.602600
      6 C2         156.9910   161.6130   132.9370 c3         1 8I2       0.109800
      7 C22        156.3260   153.7330   130.2500 c3         1 8I2       0.109800
      8 C24        155.3080   153.6490   131.4490 c          1 8I2       0.593600
      9 C27        152.9180   153.7070   132.3150 c3         1 8I2       0.063200
     10 C29        153.1880   154.7820   133.4050 c          1 8I2       0.586600
     11 C32        152.7960   157.1720   133.7440 c3         1 8I2       0.099800
     12 C34        153.5050   158.5120   133.3630 c          1 8I2       0.595100
     13 C37        153.5990   160.4470   131.6770 c3         1 8I2       0.067700
     14 C39        154.6150   161.2750   132.5230 c          1 8I2       0.602600
     15 C4         158.2870   160.7600   133.1110 c          1 8I2       0.593600
     16 C42        152.1990   161.1330   131.6420 c3         1 8I2      -0.075900
     17 C43        151.1770   160.5710   130.6130 c3         1 8I2      -0.059700
     18 C44        149.7750   161.1780   130.8450 c3         1 8I2      -0.089100
     19 C45        151.6250   160.7860   129.1470 c3         1 8I2      -0.089100
     20 C47        151.2540   157.3670   133.7040 c3         1 8I2      -0.027100
     21 C48        150.4560   156.0950   133.9770 ca         1 8I2      -0.128300
     22 C49        150.4010   155.5530   135.2730 ca         1 8I2      -0.062750
     23 C50        149.7140   154.3500   135.5060 ca         1 8I2      -0.181000
     24 C51        149.0650   153.6760   134.4560 ca         1 8I2       0.324500
     25 C52        149.1020   154.2370   133.1650 ca         1 8I2      -0.181000
     26 C53        149.7930   155.4360   132.9250 ca         1 8I2      -0.062750
     27 C55        147.2420   152.0140   133.8600 c6         1 8I2       0.178550
     28 C56        146.3610   150.9410   134.5700 c6         1 8I2       0.145600
     29 C58        148.1780   150.2760   135.9990 c6         1 8I2       0.145600
     30 C59        149.1380   151.3210   135.3540 c6         1 8I2       0.178550
     31 C60        152.6600   152.2900   132.9100 c3         1 8I2      -0.075400
     32 C61        152.1400   151.2160   131.9120 c3         1 8I2      -0.057200
     33 C62        152.2110   149.8030   132.5350 c3         1 8I2      -0.088600
     34 C63        150.7080   151.5120   131.4070 c3         1 8I2      -0.088600
     35 C65        156.3310   155.0860   129.4800 c3         1 8I2      -0.118100
     36 C66        160.0550   152.2730   132.1150 c3         1 8I2      -0.075900
     37 C67        161.5080   151.7190   132.1450 c3         1 8I2      -0.059700
     38 C68        161.5630   150.3570   132.8740 c3         1 8I2      -0.089100
     39 C69        162.1330   151.6060   130.7340 c3         1 8I2      -0.089100
     40 C7         160.1830   159.3550   132.1780 c3         1 8I2       0.063200
     41 C71        162.8980   156.0890   134.4290 c3         1 8I2      -0.027100
     42 C72        163.7160   157.3800   134.4650 ca         1 8I2      -0.128300
     43 C73        163.5350   158.3040   135.5110 ca         1 8I2      -0.062750
     44 C74        164.2010   159.5420   135.4850 ca         1 8I2      -0.181000
     45 C75        165.0570   159.8750   134.4170 ca         1 8I2       0.324500
     46 C76        165.2460   158.9400   133.3840 ca         1 8I2      -0.181000
     47 C77        164.5820   157.7020   133.4040 ca         1 8I2      -0.062750
     48 C79        165.0990   162.3490   134.9980 c6         1 8I2       0.178550
     49 C80        165.6010   163.6680   134.3360 c6         1 8I2       0.145600
     50 C82        167.5940   162.5970   133.5160 c6         1 8I2       0.145600
     51 C83        167.1810   161.2290   134.1390 c6         1 8I2       0.178550
     52 C84        161.4150   160.2780   132.4380 c3         1 8I2      -0.075400
     53 C85        161.6150   161.4470   131.4330 c3         1 8I2      -0.057200
     54 C86        162.7760   162.3620   131.8860 c3         1 8I2      -0.088600
     55 C87        161.8400   160.9530   129.9840 c3         1 8I2      -0.088600
     56 C9         160.0930   158.1740   133.1870 c          1 8I2       0.586600
     57 N16        160.8230   154.7200   132.2050 n          1 8I2      -0.395800
     58 N26        153.9090   153.6970   131.1910 n          1 8I2      -0.395300
     59 N36        153.4660   158.9850   132.0180 n          1 8I2      -0.395800
     60 N54        148.3960   152.4560   134.7100 nh         1 8I2      -0.813900
     61 N6         158.9050   160.1210   131.9940 n          1 8I2      -0.395300
     62 N78        165.7000   161.1330   134.3590 nh         1 8I2      -0.813900
     63 O10        159.0660   157.8030   133.7400 o          1 8I2      -0.435000
     64 O11        161.2930   157.5210   133.2900 os         1 8I2      -0.449600
     65 O15        159.8680   154.4980   134.2910 o          1 8I2      -0.573100
     66 O20        158.0130   155.2630   131.9450 o          1 8I2      -0.468500
     67 O21        157.6980   153.4060   130.6200 os         1 8I2      -0.438100
     68 O25        155.7010   153.4800   132.5980 o          1 8I2      -0.559100
     69 O30        153.3040   154.5430   134.6010 o          1 8I2      -0.435000
     70 O31        153.1130   156.0490   132.8730 os         1 8I2      -0.449600
     71 O35        153.9690   159.2060   134.2580 o          1 8I2      -0.573100
     72 O40        154.3040   162.2120   133.2500 o          1 8I2      -0.468500
     73 O41        155.9130   160.8830   132.2910 os         1 8I2      -0.438100
     74 O5         158.8230   160.7240   134.2140 o          1 8I2      -0.559100
     75 O57        147.1730   149.8440   135.0510 os         1 8I2      -0.448000
     76 O81        167.0480   163.6990   134.2790 os         1 8I2      -0.448000
     77 H1         158.0550   163.4930   132.6170 hc         1 8I2       0.053200
     78 H2         157.5390   162.7240   131.1090 hc         1 8I2       0.053200
     79 H3         156.3550   163.5580   132.1330 hc         1 8I2       0.053200
     80 H4         160.9240   156.5800   135.1160 h1         1 8I2       0.100200
     81 H5         160.1740   153.6580   130.5140 h1         1 8I2       0.065700
     82 H6         156.6980   161.8840   133.9600 h1         1 8I2       0.088200
     83 H7         155.9950   152.9650   129.5400 h1         1 8I2       0.088200
     84 H8         151.9630   154.0390   131.8920 h1         1 8I2       0.071700
     85 H9         153.1020   156.9660   134.7780 h1         1 8I2       0.100200
     86 H10        154.0160   160.5150   130.6660 h1         1 8I2       0.065700
     87 H11        151.7650   161.0650   132.6480 hc         1 8I2       0.066200
     88 H12        152.3320   162.2030   131.4390 hc         1 8I2       0.066200
     89 H13        151.0790   159.4910   130.7760 hc         1 8I2       0.050200
     90 H14        149.4260   160.9720   131.8640 hc         1 8I2       0.032367
     91 H15        149.7900   162.2650   130.6990 hc         1 8I2       0.032367
     92 H16        149.0450   160.7480   130.1480 hc         1 8I2       0.032367
     93 H17        150.8760   160.3860   128.4530 hc         1 8I2       0.032367
     94 H18        151.7520   161.8540   128.9320 hc         1 8I2       0.032367
     95 H19        152.5730   160.2800   128.9360 hc         1 8I2       0.032367
     96 H20        152.5670   157.4960   130.7970 h1         1 8I2       0.042700
     97 H21        153.7170   158.5490   129.9390 h1         1 8I2       0.042700
     98 H22        154.3310   157.3080   131.0480 h1         1 8I2       0.042700
     99 H23        150.9730   157.7810   132.7280 hc         1 8I2       0.059700
    100 H24        150.9800   158.1350   134.4380 hc         1 8I2       0.059700
    101 H25        150.9060   156.0520   136.0970 ha         1 8I2       0.110500
    102 H26        149.6830   153.9420   136.5120 ha         1 8I2       0.112500
    103 H27        148.6140   153.7390   132.3340 ha         1 8I2       0.112500
    104 H28        149.8270   155.8420   131.9160 ha         1 8I2       0.110500
    105 H30        146.6030   152.8740   133.6100 h1         1 8I2       0.049325
    106 H31        145.6090   150.5530   133.8680 h1         1 8I2       0.052825
    107 H32        145.8310   151.3970   135.4180 h1         1 8I2       0.052825
    108 H33        147.6820   150.7180   136.8750 h1         1 8I2       0.052825
    109 H34        148.7520   149.4030   136.3380 h1         1 8I2       0.052825
    110 H35        149.8190   151.6900   136.1340 h1         1 8I2       0.049325
    111 H36        149.7570   150.8110   134.6020 h1         1 8I2       0.049325
    112 H37        153.5920   151.9340   133.3650 hc         1 8I2       0.071700
    113 H38        151.9350   152.3770   133.7300 hc         1 8I2       0.071700
    114 H39        152.8060   151.2090   131.0400 hc         1 8I2       0.049200
    115 H40        153.2390   149.5590   132.8280 hc         1 8I2       0.031950
    116 H41        151.5740   149.7350   133.4250 hc         1 8I2       0.031950
    117 H42        151.8780   149.0450   131.8160 hc         1 8I2       0.031950
    118 H43        150.3920   150.7550   130.6790 hc         1 8I2       0.031950
    119 H44        149.9940   151.4990   132.2390 hc         1 8I2       0.031950
    120 H45        150.6430   152.4890   130.9180 hc         1 8I2       0.031950
    121 H46        152.3110   153.5460   129.7910 h1         1 8I2       0.041033
    122 H47        153.4020   154.9250   129.5390 h1         1 8I2       0.041033
    123 H48        153.9130   153.2610   129.0990 h1         1 8I2       0.041033
    124 H49        157.2640   155.2070   128.9160 hc         1 8I2       0.053200
    125 H50        155.5120   155.1360   128.7560 hc         1 8I2       0.053200
    126 H51        156.2270   155.9350   130.1660 hc         1 8I2       0.053200
    127 H52        159.6350   152.2250   133.1270 hc         1 8I2       0.066200
    128 H53        159.4370   151.5990   131.5080 hc         1 8I2       0.066200
    129 H54        162.1270   152.4140   132.7260 hc         1 8I2       0.050200
    130 H55        161.1770   150.4480   133.8960 hc         1 8I2       0.032367
    131 H56        160.9640   149.6060   132.3450 hc         1 8I2       0.032367
    132 H57        162.5950   149.9920   132.9360 hc         1 8I2       0.032367
    133 H58        163.1470   151.1930   130.7930 hc         1 8I2       0.032367
    134 H59        161.5340   150.9490   130.0920 hc         1 8I2       0.032367
    135 H60        162.2060   152.5860   130.2500 hc         1 8I2       0.032367
    136 H61        160.4040   158.8460   131.2320 h1         1 8I2       0.071700
    137 H62        162.5900   155.8400   131.7230 h1         1 8I2       0.042700
    138 H63        161.9260   154.8920   130.3880 h1         1 8I2       0.042700
    139 H64        161.0950   156.3770   130.9080 h1         1 8I2       0.042700
    140 H65        163.3090   155.3930   133.6900 hc         1 8I2       0.059700
    141 H66        162.9840   155.5660   135.3900 hc         1 8I2       0.059700
    142 H67        162.8600   158.0750   136.3320 ha         1 8I2       0.110500
    143 H68        164.0420   160.2420   136.2990 ha         1 8I2       0.112500
    144 H69        165.8850   159.1850   132.5420 ha         1 8I2       0.112500
    145 H70        164.7190   157.0080   132.5780 ha         1 8I2       0.110500
    146 H71        165.3490   162.3730   136.0690 h1         1 8I2       0.049325
    147 H72        164.0030   162.3190   134.9170 h1         1 8I2       0.049325
    148 H73        165.2440   164.5330   134.9130 h1         1 8I2       0.052825
    149 H74        165.1980   163.7500   133.3160 h1         1 8I2       0.052825
    150 H75        167.2290   162.6590   132.4800 h1         1 8I2       0.052825
    151 H76        168.6900   162.6810   133.4950 h1         1 8I2       0.052825
    152 H77        167.5340   160.4270   133.4740 h1         1 8I2       0.049325
    153 H78        167.7070   161.1040   135.0970 h1         1 8I2       0.049325
    154 H79        161.3370   160.6910   133.4500 hc         1 8I2       0.071700
    155 H80        162.3280   159.6690   132.4370 hc         1 8I2       0.071700
    156 H81        160.7060   162.0610   131.4360 hc         1 8I2       0.049200
    157 H82        162.5810   162.7680   132.8860 hc         1 8I2       0.031950
    158 H83        163.7220   161.8080   131.9180 hc         1 8I2       0.031950
    159 H84        162.8960   163.2070   131.1980 hc         1 8I2       0.031950
    160 H85        162.0090   161.8010   129.3100 hc         1 8I2       0.031950
    161 H86        162.7130   160.2920   129.9280 hc         1 8I2       0.031950
    162 H87        160.9680   160.4050   129.6110 hc         1 8I2       0.031950
    163 H88        157.7120   160.7260   130.3290 h1         1 8I2       0.041033
    164 H89        158.7800   159.3530   130.0030 h1         1 8I2       0.041033
    165 H90        157.3250   159.1130   130.9990 h1         1 8I2       0.041033
    166 C46        153.5220   158.0300   130.8850 c3         1 8I2       0.102300
    167 C64        153.3580   153.8670   129.8240 c3         1 8I2       0.096300
    168 C70        161.6590   155.5040   131.2580 c3         1 8I2       0.102300
    169 C88        158.1360   159.8140   130.7620 c3         1 8I2       0.096300
    170 H29        147.6110   151.5930   132.9130 h1         1 8I2       0.049325
@<TRIPOS>BOND
     1     1     6 1   
     2     1    77 1   
     3     1    78 1   
     4     1    79 1   
     5     2     3 1   
     6     2    41 1   
     7     2    64 1   
     8     2    80 1   
     9     3    57 1   
    10     3    65 2   
    11     4     5 1   
    12     4    36 1   
    13     4    57 1   
    14     4    81 1   
    15     5    66 2   
    16     5    67 1   
    17     6    15 1   
    18     6    73 1   
    19     6    82 1   
    20     7     8 1   
    21     7    35 1   
    22     7    67 1   
    23     7    83 1   
    24     8    58 1   
    25     8    68 2   
    26     9    10 1   
    27     9    31 1   
    28     9    58 1   
    29     9    84 1   
    30    10    69 2   
    31    10    70 1   
    32    11    12 1   
    33    11    20 1   
    34    11    70 1   
    35    11    85 1   
    36    12    59 1   
    37    12    71 2   
    38    13    14 1   
    39    13    16 1   
    40    13    59 1   
    41    13    86 1   
    42    14    72 2   
    43    14    73 1   
    44    15    61 1   
    45    15    74 2   
    46    16    17 1   
    47    16    87 1   
    48    16    88 1   
    49    17    18 1   
    50    17    19 1   
    51    17    89 1   
    52    18    90 1   
    53    18    91 1   
    54    18    92 1   
    55    19    93 1   
    56    19    94 1   
    57    19    95 1   
    58    20    21 1   
    59    20    99 1   
    60    20   100 1   
    61    21    22 ar  
    62    21    26 ar  
    63    22    23 ar  
    64    22   101 1   
    65    23    24 ar  
    66    23   102 1   
    67    24    25 ar  
    68    24    60 1   
    69    25    26 ar  
    70    25   103 1   
    71    26   104 1   
    72    27    28 1   
    73    27    60 1   
    74    27   105 1   
    75    27   170 1   
    76    28    75 1   
    77    28   106 1   
    78    28   107 1   
    79    29    30 1   
    80    29    75 1   
    81    29   108 1   
    82    29   109 1   
    83    30    60 1   
    84    30   110 1   
    85    30   111 1   
    86    31    32 1   
    87    31   112 1   
    88    31   113 1   
    89    32    33 1   
    90    32    34 1   
    91    32   114 1   
    92    33   115 1   
    93    33   116 1   
    94    33   117 1   
    95    34   118 1   
    96    34   119 1   
    97    34   120 1   
    98    35   124 1   
    99    35   125 1   
   100    35   126 1   
   101    36    37 1   
   102    36   127 1   
   103    36   128 1   
   104    37    38 1   
   105    37    39 1   
   106    37   129 1   
   107    38   130 1   
   108    38   131 1   
   109    38   132 1   
   110    39   133 1   
   111    39   134 1   
   112    39   135 1   
   113    40    52 1   
   114    40    56 1   
   115    40    61 1   
   116    40   136 1   
   117    41    42 1   
   118    41   140 1   
   119    41   141 1   
   120    42    43 ar  
   121    42    47 ar  
   122    43    44 ar  
   123    43   142 1   
   124    44    45 ar  
   125    44   143 1   
   126    45    46 ar  
   127    45    62 1   
   128    46    47 ar  
   129    46   144 1   
   130    47   145 1   
   131    48    49 1   
   132    48    62 1   
   133    48   146 1   
   134    48   147 1   
   135    49    76 1   
   136    49   148 1   
   137    49   149 1   
   138    50    51 1   
   139    50    76 1   
   140    50   150 1   
   141    50   151 1   
   142    51    62 1   
   143    51   152 1   
   144    51   153 1   
   145    52    53 1   
   146    52   154 1   
   147    52   155 1   
   148    53    54 1   
   149    53    55 1   
   150    53   156 1   
   151    54   157 1   
   152    54   158 1   
   153    54   159 1   
   154    55   160 1   
   155    55   161 1   
   156    55   162 1   
   157    56    63 2   
   158    56    64 1   
   159    57   168 1   
   160    58   167 1   
   161    59   166 1   
   162    61   169 1   
   163    96   166 1   
   164    97   166 1   
   165    98   166 1   
   166   121   167 1   
   167   122   167 1   
   168   123   167 1   
   169   137   168 1   
   170   138   168 1   
   171   139   168 1   
   172   163   169 1   
   173   164   169 1   
   174   165   169 1   
@<TRIPOS>SUBSTRUCTURE
     1 8I2         1 TEMP              0 ****  ****    0 ROOT
