@<TRIPOS>MOLECULE
8I2
  170   174     1     0     0
SMALL
bcc


@<TRIPOS>ATOM
      1 C1         157.3650   162.8530   131.6740 c3         1 8I2      -0.118100
      2 C12        160.8250   156.1110   133.2790 c3         1 8I2       0.076600
      3 C14        160.0620   155.0220   132.5230 c          1 8I2       0.662100
      4 C17        159.4400   153.8730   130.5060 c3         1 8I2       0.067700
      5 C19        158.0590   154.5230   130.3710 c          1 8I2       0.651600
      6 C2         156.9940   161.6080   132.4700 c3         1 8I2       0.086600
      7 C22        155.7310   153.9420   130.0400 c3         1 8I2       0.086600
      8 C24        155.1990   154.2280   131.4490 c          1 8I2       0.660600
      9 C27        153.4840   154.0280   133.0980 c3         1 8I2       0.063200
     10 C29        153.6800   155.4040   133.7150 c          1 8I2       0.635600
     11 C32        152.8480   157.5960   133.3780 c3         1 8I2       0.076600
     12 C34        153.4570   158.8970   132.8510 c          1 8I2       0.662100
     13 C37        153.7700   160.4510   131.0560 c3         1 8I2       0.067700
     14 C39        154.7130   161.3480   131.8510 c          1 8I2       0.651600
     15 C4         158.2210   160.7100   132.6570 c          1 8I2       0.660600
     16 C42        152.3730   161.0600   130.9550 c3         1 8I2      -0.075900
     17 C43        151.4240   160.3360   129.9980 c3         1 8I2      -0.059700
     18 C44        150.0150   160.8980   130.1640 c3         1 8I2      -0.089100
     19 C45        151.8700   160.4510   128.5430 c3         1 8I2      -0.089100
     20 C47        151.3400   157.6410   133.0690 c3         1 8I2      -0.027100
     21 C48        150.6430   156.3980   133.5400 ca         1 8I2      -0.128300
     22 C49        150.4700   156.1330   134.8970 ca         1 8I2      -0.080750
     23 C50        149.8820   154.9640   135.3410 ca         1 8I2      -0.199000
     24 C51        149.4340   153.9840   134.4390 ca         1 8I2       0.186100
     25 C52        149.6080   154.2520   133.0750 ca         1 8I2      -0.199000
     26 C53        150.1940   155.4370   132.6460 ca         1 8I2      -0.080750
     27 C55        148.3820   151.8570   133.9050 c6         1 8I2       0.178550
     28 C56        147.4890   150.8050   134.5380 c6         1 8I2       0.122400
     29 C58        148.4250   151.1290   136.6160 c6         1 8I2       0.122400
     30 C59        149.3690   152.1880   136.0850 c6         1 8I2       0.178550
     31 C60        154.0630   152.9090   133.9650 c3         1 8I2      -0.075400
     32 C61        153.8010   151.5000   133.4310 c3         1 8I2      -0.057200
     33 C62        154.6050   150.4900   134.2450 c3         1 8I2      -0.088600
     34 C63        152.3220   151.1300   133.4620 c3         1 8I2      -0.088600
     35 C65        155.4010   155.0080   129.0030 c3         1 8I2      -0.118100
     36 C66        159.4340   152.4210   131.0110 c3         1 8I2      -0.075900
     37 C67        160.8090   151.8610   131.3750 c3         1 8I2      -0.059700
     38 C68        160.6440   150.4520   131.9350 c3         1 8I2      -0.089100
     39 C69        161.7710   151.8480   130.1910 c3         1 8I2      -0.089100
     40 C7         160.0300   159.3760   131.7720 c3         1 8I2       0.063200
     41 C71        162.2630   155.6990   133.6220 c3         1 8I2      -0.027100
     42 C72        163.0570   156.8710   134.1230 ca         1 8I2      -0.128300
     43 C73        162.8060   157.4550   135.3600 ca         1 8I2      -0.080750
     44 C74        163.4570   158.6060   135.7700 ca         1 8I2      -0.199000
     45 C75        164.4020   159.2390   134.9410 ca         1 8I2       0.186100
     46 C76        164.6760   158.6310   133.7040 ca         1 8I2      -0.199000
     47 C77        164.0110   157.4790   133.3160 ca         1 8I2      -0.080750
     48 C79        164.5350   161.2090   136.4130 c6         1 8I2       0.178550
     49 C80        164.8510   162.6700   136.1460 c6         1 8I2       0.122400
     50 C82        166.9660   161.8430   135.4620 c6         1 8I2       0.122400
     51 C83        166.1450   160.9290   134.5740 c6         1 8I2       0.178550
     52 C84        161.2110   160.1390   132.4010 c3         1 8I2      -0.075400
     53 C85        161.4660   161.5290   131.8220 c3         1 8I2      -0.057200
     54 C86        162.6380   162.1660   132.5650 c3         1 8I2      -0.088600
     55 C87        161.7450   161.4910   130.3230 c3         1 8I2      -0.088600
     56 C9         159.7520   158.0670   132.4930 c          1 8I2       0.635600
     57 N16        160.3160   154.7980   131.2130 n          1 8I2      -0.462800
     58 N26        153.9010   153.9630   131.7060 n          1 8I2      -0.462300
     59 N36        153.7460   159.0730   131.5460 n          1 8I2      -0.462800
     60 N54        148.8160   152.8240   134.8960 nh         1 8I2      -0.675500
     61 N6         158.8010   160.1260   131.5820 n          1 8I2      -0.462300
     62 N78        165.0320   160.3920   135.3250 nh         1 8I2      -0.675500
     63 O10        158.6840   157.7030   132.9020 o          1 8I2      -0.484000
     64 O11        160.8680   157.3500   132.5810 os         1 8I2      -0.426400
     65 O15        159.2680   154.3470   133.1570 o          1 8I2      -0.573100
     66 O20        157.9010   155.7120   130.3760 o          1 8I2      -0.517500
     67 O21        157.1150   153.6170   130.1560 os         1 8I2      -0.414900
     68 O25        155.9470   154.6280   132.3260 o          1 8I2      -0.559100
     69 O30        153.9670   155.5940   134.8650 o          1 8I2      -0.484000
     70 O31        153.3640   156.3800   132.8510 os         1 8I2      -0.426400
     71 O35        153.4990   159.8270   133.6440 o          1 8I2      -0.573100
     72 O40        154.4270   162.4310   132.2850 o          1 8I2      -0.517500
     73 O41        155.9380   160.8300   131.8920 os         1 8I2      -0.414900
     74 O5         158.7100   160.6500   133.7740 o          1 8I2      -0.559100
     75 O57        148.1060   150.1730   135.6330 os         1 8I2      -0.401600
     76 O81        166.2300   162.9280   135.9870 os         1 8I2      -0.401600
     77 H1         158.2480   163.3060   132.1270 hc         1 8I2       0.053200
     78 H2         157.6010   162.6370   130.6340 hc         1 8I2       0.053200
     79 H3         156.5710   163.5940   131.7000 hc         1 8I2       0.053200
     80 H4         160.2800   156.2520   134.2140 h1         1 8I2       0.100200
     81 H5         159.8200   153.8410   129.4800 h1         1 8I2       0.065700
     82 H6         156.6970   161.9050   133.4780 h1         1 8I2       0.088200
     83 H7         155.3030   152.9990   129.6960 h1         1 8I2       0.088200
     84 H8         152.3940   153.9160   133.0950 h1         1 8I2       0.071700
     85 H9         152.9990   157.6250   134.4570 h1         1 8I2       0.100200
     86 H10        154.2090   160.4080   130.0560 h1         1 8I2       0.065700
     87 H11        151.9240   161.1050   131.9510 hc         1 8I2       0.066200
     88 H12        152.4720   162.0960   130.6190 hc         1 8I2       0.066200
     89 H13        151.3850   159.2740   130.2650 hc         1 8I2       0.050200
     90 H14        149.6600   160.7790   131.1890 hc         1 8I2       0.032367
     91 H15        149.9870   161.9640   129.9240 hc         1 8I2       0.032367
     92 H16        149.3080   160.3930   129.5050 hc         1 8I2       0.032367
     93 H17        151.1670   159.9410   127.8820 hc         1 8I2       0.032367
     94 H18        151.9150   161.4980   128.2340 hc         1 8I2       0.032367
     95 H19        152.8530   160.0130   128.3620 hc         1 8I2       0.032367
     96 H20        152.9950   157.4080   130.4500 h1         1 8I2       0.042700
     97 H21        154.1840   158.4070   129.6320 h1         1 8I2       0.042700
     98 H22        154.7110   157.3180   130.8970 h1         1 8I2       0.042700
     99 H23        151.1890   157.7630   131.9940 hc         1 8I2       0.059700
    100 H24        150.9270   158.5290   133.5520 hc         1 8I2       0.059700
    101 H25        150.7990   156.8590   135.6330 ha         1 8I2       0.128500
    102 H26        149.7570   154.8310   136.4070 ha         1 8I2       0.130500
    103 H27        149.3080   153.5370   132.3230 ha         1 8I2       0.130500
    104 H28        150.3160   155.5970   131.5810 ha         1 8I2       0.128500
    105 H30        147.7950   152.3560   133.1320 h1         1 8I2       0.049325
    106 H31        147.2560   150.0380   133.7980 h1         1 8I2       0.052825
    107 H32        146.5450   151.2740   134.8490 h1         1 8I2       0.052825
    108 H33        147.5120   151.6110   136.9930 h1         1 8I2       0.052825
    109 H34        148.8970   150.6050   137.4480 h1         1 8I2       0.052825
    110 H35        149.5190   152.9180   136.8780 h1         1 8I2       0.049325
    111 H36        150.3480   151.7380   135.8670 h1         1 8I2       0.049325
    112 H37        155.1360   153.0540   134.0950 hc         1 8I2       0.071700
    113 H38        153.6180   152.9920   134.9600 hc         1 8I2       0.071700
    114 H39        154.1520   151.4430   132.3940 hc         1 8I2       0.049200
    115 H40        155.6740   150.7080   134.2090 hc         1 8I2       0.031950
    116 H41        154.2980   150.5030   135.2940 hc         1 8I2       0.031950
    117 H42        154.4580   149.4760   133.8710 hc         1 8I2       0.031950
    118 H43        152.1620   150.1240   133.0710 hc         1 8I2       0.031950
    119 H44        151.9440   151.1480   134.4870 hc         1 8I2       0.031950
    120 H45        151.6970   151.8040   132.8740 hc         1 8I2       0.031950
    121 H46        152.0860   153.1290   131.1130 h1         1 8I2       0.041033
    122 H47        152.4620   154.6600   130.3250 h1         1 8I2       0.041033
    123 H48        153.2860   153.1650   129.8480 h1         1 8I2       0.041033
    124 H49        155.9030   154.7770   128.0640 hc         1 8I2       0.053200
    125 H50        154.3310   155.0030   128.8060 hc         1 8I2       0.053200
    126 H51        155.6850   156.0090   129.3110 hc         1 8I2       0.053200
    127 H52        158.7670   152.3130   131.8640 hc         1 8I2       0.066200
    128 H53        159.0180   151.8030   130.2100 hc         1 8I2       0.066200
    129 H54        161.2450   152.4820   132.1640 hc         1 8I2       0.050200
    130 H55        159.9860   150.4420   132.8060 hc         1 8I2       0.032367
    131 H56        160.2150   149.7800   131.1880 hc         1 8I2       0.032367
    132 H57        161.6040   150.0350   132.2410 hc         1 8I2       0.032367
    133 H58        162.7250   151.4020   130.4740 hc         1 8I2       0.032367
    134 H59        161.3640   151.2600   129.3650 hc         1 8I2       0.032367
    135 H60        161.9860   152.8470   129.8120 hc         1 8I2       0.032367
    136 H61        160.3530   159.0880   130.7670 h1         1 8I2       0.071700
    137 H62        162.0510   155.9790   130.9100 h1         1 8I2       0.042700
    138 H63        161.5420   155.0120   129.5540 h1         1 8I2       0.042700
    139 H64        160.6460   156.4760   129.9560 h1         1 8I2       0.042700
    140 H65        162.7640   155.2550   132.7600 hc         1 8I2       0.059700
    141 H66        162.1890   154.9100   134.3740 hc         1 8I2       0.059700
    142 H67        162.0790   157.0070   136.0290 ha         1 8I2       0.128500
    143 H68        163.2360   159.0030   136.7520 ha         1 8I2       0.130500
    144 H69        165.3880   159.0690   133.0180 ha         1 8I2       0.130500
    145 H70        164.2330   157.0580   132.3420 ha         1 8I2       0.128500
    146 H71        164.9420   160.8980   137.3830 h1         1 8I2       0.049325
    147 H72        163.4480   161.1240   136.4830 h1         1 8I2       0.049325
    148 H73        164.4940   163.2710   136.9850 h1         1 8I2       0.052825
    149 H74        164.2950   162.9920   135.2560 h1         1 8I2       0.052825
    150 H75        167.7970   162.2510   134.8820 h1         1 8I2       0.052825
    151 H76        167.3980   161.2450   136.2740 h1         1 8I2       0.052825
    152 H77        165.8200   161.4590   133.6680 h1         1 8I2       0.049325
    153 H78        166.8040   160.1210   134.2470 h1         1 8I2       0.049325
    154 H79        161.0890   160.2150   133.4810 hc         1 8I2       0.071700
    155 H80        162.1040   159.5320   132.2330 hc         1 8I2       0.071700
    156 H81        160.5850   162.1560   131.9910 hc         1 8I2       0.049200
    157 H82        162.4510   162.2170   133.6390 hc         1 8I2       0.031950
    158 H83        163.5560   161.5910   132.4160 hc         1 8I2       0.031950
    159 H84        162.8230   163.1820   132.2110 hc         1 8I2       0.031950
    160 H85        161.9960   162.4850   129.9480 hc         1 8I2       0.031950
    161 H86        162.5870   160.8300   130.1000 hc         1 8I2       0.031950
    162 H87        160.8870   161.1400   129.7470 hc         1 8I2       0.031950
    163 H88        157.4090   160.6410   130.0640 h1         1 8I2       0.041033
    164 H89        158.8840   159.8890   129.5150 h1         1 8I2       0.041033
    165 H90        157.6400   158.9100   130.2980 h1         1 8I2       0.041033
    166 C46        153.9090   157.9860   130.5940 c3         1 8I2       0.102300
    167 C64        152.8910   153.7260   130.6930 c3         1 8I2       0.096300
    168 C70        161.1770   155.6210   130.3770 c3         1 8I2       0.102300
    169 C88        158.1390   159.8810   130.3080 c3         1 8I2       0.096300
    170 H29        149.2370   151.3750   133.4060 h1         1 8I2       0.049325
@<TRIPOS>BOND
     1     1     6 1   
     2     1    77 1   
     3     1    78 1   
     4     1    79 1   
     5     2     3 1   
     6     2    41 1   
     7     2    64 1   
     8     2    80 1   
     9     3    57 1   
    10     3    65 2   
    11     4     5 1   
    12     4    36 1   
    13     4    57 1   
    14     4    81 1   
    15     5    66 2   
    16     5    67 1   
    17     6    15 1   
    18     6    73 1   
    19     6    82 1   
    20     7     8 1   
    21     7    35 1   
    22     7    67 1   
    23     7    83 1   
    24     8    58 1   
    25     8    68 2   
    26     9    10 1   
    27     9    31 1   
    28     9    58 1   
    29     9    84 1   
    30    10    69 2   
    31    10    70 1   
    32    11    12 1   
    33    11    20 1   
    34    11    70 1   
    35    11    85 1   
    36    12    59 1   
    37    12    71 2   
    38    13    14 1   
    39    13    16 1   
    40    13    59 1   
    41    13    86 1   
    42    14    72 2   
    43    14    73 1   
    44    15    61 1   
    45    15    74 2   
    46    16    17 1   
    47    16    87 1   
    48    16    88 1   
    49    17    18 1   
    50    17    19 1   
    51    17    89 1   
    52    18    90 1   
    53    18    91 1   
    54    18    92 1   
    55    19    93 1   
    56    19    94 1   
    57    19    95 1   
    58    20    21 1   
    59    20    99 1   
    60    20   100 1   
    61    21    22 ar  
    62    21    26 ar  
    63    22    23 ar  
    64    22   101 1   
    65    23    24 ar  
    66    23   102 1   
    67    24    25 ar  
    68    24    60 1   
    69    25    26 ar  
    70    25   103 1   
    71    26   104 1   
    72    27    28 1   
    73    27    60 1   
    74    27   105 1   
    75    27   170 1   
    76    28    75 1   
    77    28   106 1   
    78    28   107 1   
    79    29    30 1   
    80    29    75 1   
    81    29   108 1   
    82    29   109 1   
    83    30    60 1   
    84    30   110 1   
    85    30   111 1   
    86    31    32 1   
    87    31   112 1   
    88    31   113 1   
    89    32    33 1   
    90    32    34 1   
    91    32   114 1   
    92    33   115 1   
    93    33   116 1   
    94    33   117 1   
    95    34   118 1   
    96    34   119 1   
    97    34   120 1   
    98    35   124 1   
    99    35   125 1   
   100    35   126 1   
   101    36    37 1   
   102    36   127 1   
   103    36   128 1   
   104    37    38 1   
   105    37    39 1   
   106    37   129 1   
   107    38   130 1   
   108    38   131 1   
   109    38   132 1   
   110    39   133 1   
   111    39   134 1   
   112    39   135 1   
   113    40    52 1   
   114    40    56 1   
   115    40    61 1   
   116    40   136 1   
   117    41    42 1   
   118    41   140 1   
   119    41   141 1   
   120    42    43 ar  
   121    42    47 ar  
   122    43    44 ar  
   123    43   142 1   
   124    44    45 ar  
   125    44   143 1   
   126    45    46 ar  
   127    45    62 1   
   128    46    47 ar  
   129    46   144 1   
   130    47   145 1   
   131    48    49 1   
   132    48    62 1   
   133    48   146 1   
   134    48   147 1   
   135    49    76 1   
   136    49   148 1   
   137    49   149 1   
   138    50    51 1   
   139    50    76 1   
   140    50   150 1   
   141    50   151 1   
   142    51    62 1   
   143    51   152 1   
   144    51   153 1   
   145    52    53 1   
   146    52   154 1   
   147    52   155 1   
   148    53    54 1   
   149    53    55 1   
   150    53   156 1   
   151    54   157 1   
   152    54   158 1   
   153    54   159 1   
   154    55   160 1   
   155    55   161 1   
   156    55   162 1   
   157    56    63 2   
   158    56    64 1   
   159    57   168 1   
   160    58   167 1   
   161    59   166 1   
   162    61   169 1   
   163    96   166 1   
   164    97   166 1   
   165    98   166 1   
   166   121   167 1   
   167   122   167 1   
   168   123   167 1   
   169   137   168 1   
   170   138   168 1   
   171   139   168 1   
   172   163   169 1   
   173   164   169 1   
   174   165   169 1   
@<TRIPOS>SUBSTRUCTURE
     1 8I2         1 TEMP              0 ****  ****    0 ROOT
