@<TRIPOS>MOLECULE
8I6
   43    43     1     0     0
SMALL
No Charge or Current Charge


@<TRIPOS>ATOM
      1 C10          8.9580     5.1210    13.4050 ca         1 8I6       0.041700
      2 C15          9.1130     4.1770    11.1610 ca         1 8I6       0.254100
      3 C17          9.7350     4.8200    12.2510 ca         1 8I6      -0.301600
      4 C01         12.5120    15.0590    18.2420 c3         1 8I6      -0.087100
      5 C02         11.9970    14.2640    17.0270 c3         1 8I6      -0.075400
      6 C03         11.7630    12.7700    17.3360 c3         1 8I6      -0.075400
      7 C04         11.2470    11.9730    16.1180 c3         1 8I6      -0.075400
      8 C05         11.0130    10.4790    16.4280 c3         1 8I6      -0.074400
      9 C06         10.4960     9.6820    15.2090 c3         1 8I6      -0.073400
     10 C07         10.2620     8.1880    15.5190 c3         1 8I6      -0.072400
     11 C08          9.7450     7.3910    14.3010 c3         1 8I6      -0.063400
     12 C09          9.5060     5.8950    14.6090 c3         1 8I6      -0.022100
     13 C11          7.6020     4.7340    13.4370 ca         1 8I6      -0.305000
     14 C12          7.0190     4.0690    12.3560 ca         1 8I6       0.163100
     15 C14          7.7700     3.7950    11.2150 ca         1 8I6      -0.259000
     16 C18         11.1980     5.1620    12.1480 c          1 8I6       0.726600
     17 O13          5.7120     3.7070    12.4100 oh         1 8I6      -0.555100
     18 O16          9.8120     3.9360    10.0240 oh         1 8I6      -0.657100
     19 O19         11.6030     5.5340    11.0550 o          1 8I6      -0.686000
     20 O20         11.9380     4.8640    13.0700 o          1 8I6      -0.686000
     21 H013        12.6630    16.1120    17.9740 hc         1 8I6       0.027367
     22 H012        11.7920    15.0150    19.0680 hc         1 8I6       0.027367
     23 H011        13.4690    14.6540    18.5940 hc         1 8I6       0.027367
     24 H022        12.7210    14.3570    16.2080 hc         1 8I6       0.035200
     25 H021        11.0600    14.7150    16.6780 hc         1 8I6       0.035200
     26 H032        11.0400    12.6810    18.1570 hc         1 8I6       0.035200
     27 H031        12.7020    12.3230    17.6870 hc         1 8I6       0.035200
     28 H041        11.9700    12.0620    15.2970 hc         1 8I6       0.035700
     29 H042        10.3080    12.4200    15.7680 hc         1 8I6       0.035700
     30 H052        10.2900    10.3900    17.2480 hc         1 8I6       0.033700
     31 H051        11.9520    10.0320    16.7780 hc         1 8I6       0.033700
     32 H061        11.2190     9.7710    14.3880 hc         1 8I6       0.036200
     33 H062         9.5570    10.1290    14.8590 hc         1 8I6       0.036200
     34 H072         9.5400     8.0990    16.3410 hc         1 8I6       0.033200
     35 H071        11.2010     7.7410    15.8680 hc         1 8I6       0.033200
     36 H081        10.4640     7.4870    13.4790 hc         1 8I6       0.043700
     37 H082         8.8040     7.8360    13.9520 hc         1 8I6       0.043700
     38 H092         8.8020     5.8290    15.4480 hc         1 8I6       0.044700
     39 H091        10.4290     5.4400    14.9830 hc         1 8I6       0.044700
     40 H111         6.9980     4.9620    14.3110 ha         1 8I6       0.086000
     41 H141         7.3120     3.2960    10.3660 ha         1 8I6       0.117000
     42 H131         5.3620     3.9890    13.2810 ho         1 8I6       0.445000
     43 H161        10.6360     4.4900    10.1280 ho         1 8I6       0.555000
@<TRIPOS>BOND
     1     1     3 ar  
     2     1    12 1   
     3     1    13 ar  
     4     2     3 ar  
     5     2    15 ar  
     6     2    18 1   
     7     3    16 1   
     8     4     5 1   
     9     4    21 1   
    10     4    22 1   
    11     4    23 1   
    12     5     6 1   
    13     5    24 1   
    14     5    25 1   
    15     6     7 1   
    16     6    26 1   
    17     6    27 1   
    18     7     8 1   
    19     7    28 1   
    20     7    29 1   
    21     8     9 1   
    22     8    30 1   
    23     8    31 1   
    24     9    10 1   
    25     9    32 1   
    26     9    33 1   
    27    10    11 1   
    28    10    34 1   
    29    10    35 1   
    30    11    12 1   
    31    11    36 1   
    32    11    37 1   
    33    12    38 1   
    34    12    39 1   
    35    13    14 ar  
    36    13    40 1   
    37    14    15 ar  
    38    14    17 1   
    39    15    41 1   
    40    16    19 1   
    41    16    20 1   
    42    17    42 1   
    43    18    43 1   
@<TRIPOS>SUBSTRUCTURE
     1 8I6         1 TEMP              0 ****  ****    0 ROOT
