@<TRIPOS>MOLECULE
8I6
   43    43     1     0     0
SMALL
abcg2


@<TRIPOS>ATOM
      1 C10          9.0250     5.1860    13.3870 ca         1 8I6       0.041700
      2 C15          9.1850     4.1590    11.1950 ca         1 8I6       0.254100
      3 C17          9.8160     4.8410    12.2730 ca         1 8I6      -0.301600
      4 C01         12.6280    14.9240    18.2040 c3         1 8I6      -0.087100
      5 C02         11.9770    14.1940    17.0370 c3         1 8I6      -0.075400
      6 C03         11.7690    12.7100    17.3080 c3         1 8I6      -0.075400
      7 C04         11.1230    11.9670    16.1450 c3         1 8I6      -0.075400
      8 C05         10.9530    10.4760    16.4060 c3         1 8I6      -0.074400
      9 C06         10.3140     9.7250    15.2450 c3         1 8I6      -0.073400
     10 C07         10.2090     8.2250    15.4900 c3         1 8I6      -0.072400
     11 C08          9.5970     7.4630    14.3220 c3         1 8I6      -0.063400
     12 C09          9.5340     5.9560    14.5800 c3         1 8I6      -0.022100
     13 C11          7.6750     4.8540    13.4140 ca         1 8I6      -0.305000
     14 C12          7.0780     4.1800    12.3500 ca         1 8I6       0.163100
     15 C14          7.8280     3.8350    11.2400 ca         1 8I6      -0.259000
     16 C18         11.2930     5.1260    12.1550 c          1 8I6       0.726600
     17 O13          5.7730     3.8420    12.3560 oh         1 8I6      -0.555100
     18 O16          9.8710     3.8130    10.1170 oh         1 8I6      -0.657100
     19 O19         11.8380     4.7580    11.0560 o          1 8I6      -0.686000
     20 O20         11.9190     5.6740    13.0650 o          1 8I6      -0.686000
     21 H013        12.7720    15.9820    17.9860 hc         1 8I6       0.027367
     22 H012        12.0150    14.8530    19.1050 hc         1 8I6       0.027367
     23 H011        13.6050    14.4980    18.4390 hc         1 8I6       0.027367
     24 H022        12.5950    14.3140    16.1420 hc         1 8I6       0.035200
     25 H021        11.0140    14.6600    16.8050 hc         1 8I6       0.035200
     26 H032        11.1510    12.5880    18.2040 hc         1 8I6       0.035200
     27 H031        12.7340    12.2460    17.5410 hc         1 8I6       0.035200
     28 H041        11.7310    12.1080    15.2440 hc         1 8I6       0.035700
     29 H042        10.1480    12.4140    15.9240 hc         1 8I6       0.035700
     30 H052        10.3490    10.3310    17.3080 hc         1 8I6       0.033700
     31 H051        11.9320    10.0350    16.6240 hc         1 8I6       0.033700
     32 H061        10.9000     9.8990    14.3360 hc         1 8I6       0.036200
     33 H062         9.3190    10.1360    15.0470 hc         1 8I6       0.036200
     34 H072         9.6200     8.0420    16.3960 hc         1 8I6       0.033200
     35 H071        11.2070     7.8230    15.6920 hc         1 8I6       0.033200
     36 H081        10.1830     7.6540    13.4200 hc         1 8I6       0.043700
     37 H082         8.5880     7.8400    14.1230 hc         1 8I6       0.043700
     38 H092         8.8550     5.7790    15.4190 hc         1 8I6       0.044700
     39 H091        10.5170     5.6040    14.8810 hc         1 8I6       0.044700
     40 H111         7.0800     5.1260    14.2800 ha         1 8I6       0.086000
     41 H141         7.3740     3.3120    10.4070 ha         1 8I6       0.117000
     42 H131         5.3580     4.1310    13.1760 ho         1 8I6       0.445000
     43 H161        10.8410     4.1680    10.3380 ho         1 8I6       0.555000
@<TRIPOS>BOND
     1     1     3 ar  
     2     1    12 1   
     3     1    13 ar  
     4     2     3 ar  
     5     2    15 ar  
     6     2    18 1   
     7     3    16 1   
     8     4     5 1   
     9     4    21 1   
    10     4    22 1   
    11     4    23 1   
    12     5     6 1   
    13     5    24 1   
    14     5    25 1   
    15     6     7 1   
    16     6    26 1   
    17     6    27 1   
    18     7     8 1   
    19     7    28 1   
    20     7    29 1   
    21     8     9 1   
    22     8    30 1   
    23     8    31 1   
    24     9    10 1   
    25     9    32 1   
    26     9    33 1   
    27    10    11 1   
    28    10    34 1   
    29    10    35 1   
    30    11    12 1   
    31    11    36 1   
    32    11    37 1   
    33    12    38 1   
    34    12    39 1   
    35    13    14 ar  
    36    13    40 1   
    37    14    15 ar  
    38    14    17 1   
    39    15    41 1   
    40    16    19 1   
    41    16    20 1   
    42    17    42 1   
    43    18    43 1   
@<TRIPOS>SUBSTRUCTURE
     1 8I6         1 TEMP              0 ****  ****    0 ROOT
