@<TRIPOS>MOLECULE
8I7
   79    81     1     0     0
SMALL
No Charge or Current Charge


@<TRIPOS>ATOM
      1 C1          -7.8950   -20.2820   -17.7250 c3         1 8I7      -0.162400
      2 C11         -9.3050   -17.1450   -19.5210 c3         1 8I7       0.045700
      3 C12         -9.5460   -15.8800   -18.6270 c          1 8I7       0.596100
      4 C13         -8.1420   -14.3730   -20.1080 c5         1 8I7       0.133000
      5 C14         -9.6250   -13.3760   -18.3620 c5         1 8I7       0.058700
      6 C15        -11.1580   -13.0930   -18.4280 c          1 8I7       0.595100
      7 C16         -7.9000   -12.8590   -20.0630 cx         1 8I7      -0.121700
      8 C17        -12.9170   -12.0100   -16.9790 c3         1 8I7       0.105700
      9 C18         -7.2900   -12.2860   -18.7910 cx         1 8I7      -0.079000
     10 C19        -13.3170   -12.7590   -15.6790 c3         1 8I7      -0.070400
     11 C2          -6.8510   -19.9840   -16.6110 c3         1 8I7      -0.055700
     12 C20        -13.1140   -14.3030   -15.7100 c5         1 8I7      -0.155700
     13 C21        -13.9580   -15.0670   -16.7680 c5         1 8I7      -0.094400
     14 C22        -13.9020   -16.5150   -16.2100 c5         1 8I7       0.099000
     15 C23         -6.6300   -13.1730   -17.7200 c3         1 8I7      -0.064600
     16 C24        -13.5040   -15.0110   -14.4060 c          1 8I7       0.564000
     17 C25         -6.5270   -10.9660   -18.8960 c3         1 8I7      -0.064600
     18 C3          -5.3960   -19.9550   -17.1350 c3         1 8I7      -0.090100
     19 C30        -10.4960   -17.4680   -20.5070 c3         1 8I7      -0.048000
     20 C31        -11.8340   -17.6230   -19.7300 c3         1 8I7      -0.088100
     21 C32        -10.2200   -18.7900   -21.2790 c3         1 8I7      -0.088100
     22 C34         -8.7950   -12.2550   -19.0140 cx         1 8I7      -0.129700
     23 C4          -6.9930   -20.9830   -15.4390 c3         1 8I7      -0.090100
     24 C8         -13.1160   -10.4720   -16.8940 c3         1 8I7       0.150600
     25 C9          -7.9690   -19.1820   -18.7910 c          1 8I7       0.606100
     26 N10         -9.0060   -18.2930   -18.6280 ns         1 8I7      -0.501900
     27 N13         -9.2400   -14.5980   -19.1330 n          1 8I7      -0.396800
     28 N16        -11.5290   -12.3290   -17.3390 ns         1 8I7      -0.497900
     29 N23        -13.9610   -16.2470   -14.7750 ns         1 8I7      -0.518900
     30 O26        -13.6390   -14.5570   -13.2810 o          1 8I7      -0.558000
     31 O29         -7.1900   -19.1140   -19.7310 o          1 8I7      -0.612100
     32 O33        -10.0420   -15.9880   -17.5080 o          1 8I7      -0.622100
     33 O9         -14.4970   -10.1380   -16.6890 oh         1 8I7      -0.657000
     34 H1          -8.8760   -20.3710   -17.2430 hc         1 8I7       0.067200
     35 H2          -7.6340   -21.2300   -18.2100 hc         1 8I7       0.067200
     36 H3          -8.4110   -16.9500   -20.1240 h1         1 8I7       0.089700
     37 H4          -8.4440   -14.6910   -21.1130 h1         1 8I7       0.065200
     38 H5          -7.2430   -14.9460   -19.8430 h1         1 8I7       0.065200
     39 H6          -9.3660   -13.4990   -17.3020 h1         1 8I7       0.082700
     40 H7          -7.7430   -12.3170   -20.9930 hc         1 8I7       0.101700
     41 H8         -13.5760   -12.3680   -17.7820 h1         1 8I7       0.091700
     42 H9         -12.7370   -12.3370   -14.8470 hc         1 8I7       0.065700
     43 H10        -14.3680   -12.5400   -15.4540 hc         1 8I7       0.065700
     44 H11         -7.0730   -18.9870   -16.2080 hc         1 8I7       0.048700
     45 H12        -12.0590   -14.5390   -15.8860 hc         1 8I7       0.090700
     46 H13        -13.5560   -14.9960   -17.7840 hc         1 8I7       0.064700
     47 H14        -14.9920   -14.7010   -16.7950 hc         1 8I7       0.064700
     48 H15        -14.7410   -17.1270   -16.5670 h1         1 8I7       0.042700
     49 H16        -12.9630   -17.0150   -16.4850 h1         1 8I7       0.042700
     50 H17         -6.6450   -12.6740   -16.7430 hc         1 8I7       0.041200
     51 H18         -7.1110   -14.1470   -17.5880 hc         1 8I7       0.041200
     52 H19         -5.5810   -13.3690   -17.9740 hc         1 8I7       0.041200
     53 H20         -6.5370   -10.4290   -17.9400 hc         1 8I7       0.041200
     54 H21         -5.4810   -11.1370   -19.1770 hc         1 8I7       0.041200
     55 H22         -6.9670   -10.3040   -19.6510 hc         1 8I7       0.041200
     56 H23        -10.9150   -15.3830   -21.0960 hc         1 8I7       0.039811
     57 H24         -9.7540   -16.2170   -22.1550 hc         1 8I7       0.039811
     58 H25        -11.4820   -16.5810   -22.2590 hc         1 8I7       0.039811
     59 H26         -4.6930   -19.7760   -16.3130 hc         1 8I7       0.036867
     60 H27         -5.1320   -20.9090   -17.6080 hc         1 8I7       0.036867
     61 H28         -5.2550   -19.1540   -17.8690 hc         1 8I7       0.036867
     62 H29        -12.1220   -16.6870   -19.2370 hc         1 8I7       0.039811
     63 H30        -12.6500   -17.8990   -20.4090 hc         1 8I7       0.039811
     64 H31        -11.7620   -18.4030   -18.9630 hc         1 8I7       0.039811
     65 H32        -10.1990   -19.6550   -20.6050 hc         1 8I7       0.039811
     66 H33        -11.0000   -18.9800   -22.0260 hc         1 8I7       0.039811
     67 H34         -9.2580   -18.7430   -21.8050 hc         1 8I7       0.039811
     68 H35         -9.2590   -11.2910   -19.2160 hc         1 8I7       0.101700
     69 H36         -6.2910   -20.7380   -14.6330 hc         1 8I7       0.036867
     70 H37         -8.0060   -20.9540   -15.0220 hc         1 8I7       0.036867
     71 H38         -6.7880   -22.0080   -15.7730 hc         1 8I7       0.036867
     72 H39        -12.5030   -10.0740   -16.0750 h1         1 8I7       0.022700
     73 H40        -12.7590   -10.0180   -17.8280 h1         1 8I7       0.022700
     74 H41         -9.5790   -18.4090   -17.8000 hn         1 8I7       0.327500
     75 H42        -10.7930   -12.0580   -16.6980 hn         1 8I7       0.317500
     76 H43        -14.3580   -16.8560   -14.0690 hn         1 8I7       0.324500
     77 H44        -14.5530    -9.1570   -16.6510 ho         1 8I7       0.448000
     78 C26        -10.6680   -16.3420   -21.5630 c3         1 8I7      -0.088100
     79 O38        -11.9450   -13.4510   -19.2960 o          1 8I7      -0.605100
@<TRIPOS>BOND
     1     1    11 1   
     2     1    25 1   
     3     1    34 1   
     4     1    35 1   
     5     2     3 1   
     6     2    19 1   
     7     2    26 1   
     8     2    36 1   
     9     3    27 1   
    10     3    32 2   
    11     4     7 1   
    12     4    27 1   
    13     4    37 1   
    14     4    38 1   
    15     5     6 1   
    16     5    22 1   
    17     5    27 1   
    18     5    39 1   
    19     6    28 1   
    20     6    79 2   
    21     7     9 1   
    22     7    22 1   
    23     7    40 1   
    24     8    10 1   
    25     8    24 1   
    26     8    28 1   
    27     8    41 1   
    28     9    15 1   
    29     9    17 1   
    30     9    22 1   
    31    10    12 1   
    32    10    42 1   
    33    10    43 1   
    34    11    18 1   
    35    11    23 1   
    36    11    44 1   
    37    12    13 1   
    38    12    16 1   
    39    12    45 1   
    40    13    14 1   
    41    13    46 1   
    42    13    47 1   
    43    14    29 1   
    44    14    48 1   
    45    14    49 1   
    46    15    50 1   
    47    15    51 1   
    48    15    52 1   
    49    16    29 1   
    50    16    30 2   
    51    17    53 1   
    52    17    54 1   
    53    17    55 1   
    54    18    59 1   
    55    18    60 1   
    56    18    61 1   
    57    19    20 1   
    58    19    21 1   
    59    19    78 1   
    60    20    62 1   
    61    20    63 1   
    62    20    64 1   
    63    21    65 1   
    64    21    66 1   
    65    21    67 1   
    66    22    68 1   
    67    23    69 1   
    68    23    70 1   
    69    23    71 1   
    70    24    33 1   
    71    24    72 1   
    72    24    73 1   
    73    25    26 1   
    74    25    31 2   
    75    26    74 1   
    76    28    75 1   
    77    29    76 1   
    78    33    77 1   
    79    56    78 1   
    80    57    78 1   
    81    58    78 1   
@<TRIPOS>SUBSTRUCTURE
     1 8I7         1 TEMP              0 ****  ****    0 ROOT
