@<TRIPOS>MOLECULE
8I7
   79    81     1     0     0
SMALL
bcc


@<TRIPOS>ATOM
      1 C1          -7.1010   -19.7570   -17.9160 c3         1 8I7      -0.162400
      2 C11         -9.6240   -17.2200   -19.1670 c3         1 8I7       0.045700
      3 C12         -9.6510   -15.9540   -18.3160 c          1 8I7       0.663100
      4 C13         -8.4800   -14.6680   -20.1340 c5         1 8I7       0.133000
      5 C14         -9.2090   -13.5920   -18.0700 c5         1 8I7       0.058700
      6 C15        -10.6470   -13.0730   -18.0940 c          1 8I7       0.662100
      7 C16         -7.8720   -13.2910   -20.0870 cx         1 8I7      -0.121700
      8 C17        -12.4710   -12.1640   -16.6940 c3         1 8I7       0.105700
      9 C18         -6.8660   -12.9730   -19.0160 cx         1 8I7      -0.079000
     10 C19        -13.3350   -13.1710   -15.9340 c3         1 8I7      -0.070400
     11 C2          -6.6460   -19.1690   -16.5720 c3         1 8I7      -0.055700
     12 C20        -13.5850   -14.4530   -16.7100 c5         1 8I7      -0.155700
     13 C21        -14.4530   -14.3140   -17.9610 c5         1 8I7      -0.094400
     14 C22        -15.1180   -15.6840   -18.0980 c5         1 8I7       0.099000
     15 C23         -6.1730   -14.0530   -18.2180 c3         1 8I7      -0.064600
     16 C24        -14.3240   -15.5050   -15.8940 c          1 8I7       0.706500
     17 C25         -5.9680   -11.7910   -19.3040 c3         1 8I7      -0.064600
     18 C3          -5.6970   -17.9910   -16.7630 c3         1 8I7      -0.090100
     19 C30        -11.0380   -17.6920   -19.6020 c3         1 8I7      -0.048000
     20 C31        -11.9280   -18.1260   -18.4360 c3         1 8I7      -0.088100
     21 C32        -10.8560   -18.8830   -20.5470 c3         1 8I7      -0.088100
     22 C34         -8.3160   -12.6270   -18.8170 cx         1 8I7      -0.129700
     23 C4          -5.9890   -20.2640   -15.7380 c3         1 8I7      -0.090100
     24 C8         -12.3500   -10.8300   -15.9630 c3         1 8I7       0.127400
     25 C9          -7.7060   -18.7360   -18.8540 c          1 8I7       0.673100
     26 N10         -8.8890   -18.2300   -18.4440 ns         1 8I7      -0.568900
     27 N13         -9.1260   -14.8290   -18.8310 n          1 8I7      -0.463800
     28 N16        -11.1360   -12.6880   -16.9080 ns         1 8I7      -0.564900
     29 N23        -15.1690   -16.1390   -16.7250 ns         1 8I7      -0.585900
     30 O26        -14.1670   -15.7430   -14.7080 o          1 8I7      -0.633500
     31 O29         -7.1590   -18.3940   -19.8930 o          1 8I7      -0.612100
     32 O33        -10.1260   -15.9750   -17.1860 o          1 8I7      -0.622100
     33 O9         -13.6330   -10.2660   -15.8440 oh         1 8I7      -0.594800
     34 H1          -7.8270   -20.5550   -17.7320 hc         1 8I7       0.067200
     35 H2          -6.2440   -20.2070   -18.4210 hc         1 8I7       0.067200
     36 H3          -9.0740   -17.0420   -20.0900 h1         1 8I7       0.089700
     37 H4          -9.2050   -14.7310   -20.9480 h1         1 8I7       0.065200
     38 H5          -7.7300   -15.4470   -20.2890 h1         1 8I7       0.065200
     39 H6          -8.8660   -13.7580   -17.0440 h1         1 8I7       0.082700
     40 H7          -7.8290   -12.7430   -21.0210 hc         1 8I7       0.101700
     41 H8         -12.9020   -11.9730   -17.6780 h1         1 8I7       0.091700
     42 H9         -12.8460   -13.4040   -14.9830 hc         1 8I7       0.065700
     43 H10        -14.2920   -12.7050   -15.6900 hc         1 8I7       0.065700
     44 H11         -7.5270   -18.8170   -16.0260 hc         1 8I7       0.048700
     45 H12        -12.6250   -14.9130   -16.9790 hc         1 8I7       0.090700
     46 H13        -13.8890   -14.0380   -18.8490 hc         1 8I7       0.064700
     47 H14        -15.2140   -13.5470   -17.7960 hc         1 8I7       0.064700
     48 H15        -16.1170   -15.6270   -18.5310 h1         1 8I7       0.042700
     49 H16        -14.5210   -16.3610   -18.7170 h1         1 8I7       0.042700
     50 H17         -5.8840   -13.6720   -17.2370 hc         1 8I7       0.041200
     51 H18         -6.7740   -14.9460   -18.0580 hc         1 8I7       0.041200
     52 H19         -5.2610   -14.3650   -18.7300 hc         1 8I7       0.041200
     53 H20         -5.6160   -11.3340   -18.3770 hc         1 8I7       0.041200
     54 H21         -5.0910   -12.1010   -19.8750 hc         1 8I7       0.041200
     55 H22         -6.4840   -11.0200   -19.8790 hc         1 8I7       0.041200
     56 H23        -11.8990   -15.6800   -19.7350 hc         1 8I7       0.039811
     57 H24        -11.1320   -16.2390   -21.2250 hc         1 8I7       0.039811
     58 H25        -12.6930   -16.8880   -20.7350 hc         1 8I7       0.039811
     59 H26         -5.3500   -17.6170   -15.7990 hc         1 8I7       0.036867
     60 H27         -4.8190   -18.2870   -17.3410 hc         1 8I7       0.036867
     61 H28         -6.1730   -17.1570   -17.2810 hc         1 8I7       0.036867
     62 H29        -12.1710   -17.3020   -17.7670 hc         1 8I7       0.039811
     63 H30        -12.8680   -18.5190   -18.8290 hc         1 8I7       0.039811
     64 H31        -11.4740   -18.9220   -17.8420 hc         1 8I7       0.039811
     65 H32        -10.4020   -19.7340   -20.0380 hc         1 8I7       0.039811
     66 H33        -11.8240   -19.2060   -20.9320 hc         1 8I7       0.039811
     67 H34        -10.2280   -18.6220   -21.4010 hc         1 8I7       0.039811
     68 H35         -8.5920   -11.5790   -18.7940 hc         1 8I7       0.101700
     69 H36         -5.7050   -19.8890   -14.7540 hc         1 8I7       0.036867
     70 H37         -6.6600   -21.1120   -15.5930 hc         1 8I7       0.036867
     71 H38         -5.0840   -20.6330   -16.2270 hc         1 8I7       0.036867
     72 H39        -11.8870   -10.9990   -14.9800 h1         1 8I7       0.022700
     73 H40        -11.6720   -10.1830   -16.5320 h1         1 8I7       0.022700
     74 H41         -9.2690   -18.5470   -17.5660 hn         1 8I7       0.327500
     75 H42        -10.5800   -12.8720   -16.0860 hn         1 8I7       0.317500
     76 H43        -15.6900   -16.9550   -16.4410 hn         1 8I7       0.324500
     77 H44        -13.5590    -9.4440   -15.3510 ho         1 8I7       0.409000
     78 C26        -11.7220   -16.5560   -20.3620 c3         1 8I7      -0.088100
     79 O38        -11.2540   -12.9990   -19.1520 o          1 8I7      -0.605100
@<TRIPOS>BOND
     1     1    11 1   
     2     1    25 1   
     3     1    34 1   
     4     1    35 1   
     5     2     3 1   
     6     2    19 1   
     7     2    26 1   
     8     2    36 1   
     9     3    27 1   
    10     3    32 2   
    11     4     7 1   
    12     4    27 1   
    13     4    37 1   
    14     4    38 1   
    15     5     6 1   
    16     5    22 1   
    17     5    27 1   
    18     5    39 1   
    19     6    28 1   
    20     6    79 2   
    21     7     9 1   
    22     7    22 1   
    23     7    40 1   
    24     8    10 1   
    25     8    24 1   
    26     8    28 1   
    27     8    41 1   
    28     9    15 1   
    29     9    17 1   
    30     9    22 1   
    31    10    12 1   
    32    10    42 1   
    33    10    43 1   
    34    11    18 1   
    35    11    23 1   
    36    11    44 1   
    37    12    13 1   
    38    12    16 1   
    39    12    45 1   
    40    13    14 1   
    41    13    46 1   
    42    13    47 1   
    43    14    29 1   
    44    14    48 1   
    45    14    49 1   
    46    15    50 1   
    47    15    51 1   
    48    15    52 1   
    49    16    29 1   
    50    16    30 2   
    51    17    53 1   
    52    17    54 1   
    53    17    55 1   
    54    18    59 1   
    55    18    60 1   
    56    18    61 1   
    57    19    20 1   
    58    19    21 1   
    59    19    78 1   
    60    20    62 1   
    61    20    63 1   
    62    20    64 1   
    63    21    65 1   
    64    21    66 1   
    65    21    67 1   
    66    22    68 1   
    67    23    69 1   
    68    23    70 1   
    69    23    71 1   
    70    24    33 1   
    71    24    72 1   
    72    24    73 1   
    73    25    26 1   
    74    25    31 2   
    75    26    74 1   
    76    28    75 1   
    77    29    76 1   
    78    33    77 1   
    79    56    78 1   
    80    57    78 1   
    81    58    78 1   
@<TRIPOS>SUBSTRUCTURE
     1 8I7         1 TEMP              0 ****  ****    0 ROOT
