@<TRIPOS>MOLECULE
8IA
   26    26     1     0     0
SMALL
No Charge or Current Charge


@<TRIPOS>ATOM
      1 C01        106.7090    80.4710    52.3560 c6         1 8IA      -0.087900
      2 N01        106.2130    77.9990    51.8950 n3         1 8IA      -0.725600
      3 C02        106.0440    81.8420    52.6410 c6         1 8IA      -0.072400
      4 C03        105.0900    82.2560    51.4940 c6         1 8IA      -0.075400
      5 C04        104.0290    81.1610    51.2240 c6         1 8IA      -0.072400
      6 C05        104.7000    79.7960    50.9310 c6         1 8IA      -0.087900
      7 C06        105.6360    79.3670    52.0990 c6         1 8IA       0.186500
      8 C07        106.8180    77.4230    53.1190 c3         1 8IA       0.158100
      9 C08        107.0940    77.8410    50.7090 c3         1 8IA       0.158100
     10 H1         107.3440    80.2000    53.2090 hc         1 8IA       0.042950
     11 H2         107.3730    80.5670    51.4870 hc         1 8IA       0.042950
     12 H4         106.8180    82.6100    52.7760 hc         1 8IA       0.038450
     13 H5         105.4860    81.7920    53.5860 hc         1 8IA       0.038450
     14 H6         105.6700    82.4420    50.5790 hc         1 8IA       0.038200
     15 H7         104.5930    83.2030    51.7460 hc         1 8IA       0.038200
     16 H8         103.3970    81.4550    50.3750 hc         1 8IA       0.038450
     17 H9         103.3620    81.0680    52.0930 hc         1 8IA       0.038450
     18 H10        103.9270    79.0320    50.7740 hc         1 8IA       0.042950
     19 H11        105.2620    79.8740    49.9920 hc         1 8IA       0.042950
     20 H12        105.0020    79.3290    52.9990 h1         1 8IA       0.052700
     21 H13        106.1240    77.4940    53.9670 h1         1 8IA       0.027867
     22 H14        107.0560    76.3620    52.9680 h1         1 8IA       0.027867
     23 H15        107.7460    77.9440    53.3870 h1         1 8IA       0.027867
     24 H16        107.3990    76.7910    50.5980 h1         1 8IA       0.027867
     25 H17        106.5820    78.1290    49.7840 h1         1 8IA       0.027867
     26 H18        108.0050    78.4460    50.8070 h1         1 8IA       0.027867
@<TRIPOS>BOND
     1     1     3 1   
     2     1     7 1   
     3     1    10 1   
     4     1    11 1   
     5     2     7 1   
     6     2     8 1   
     7     2     9 1   
     8     3     4 1   
     9     3    12 1   
    10     3    13 1   
    11     4     5 1   
    12     4    14 1   
    13     4    15 1   
    14     5     6 1   
    15     5    16 1   
    16     5    17 1   
    17     6     7 1   
    18     6    18 1   
    19     6    19 1   
    20     7    20 1   
    21     8    21 1   
    22     8    22 1   
    23     8    23 1   
    24     9    24 1   
    25     9    25 1   
    26     9    26 1   
@<TRIPOS>SUBSTRUCTURE
     1 8IA         1 TEMP              0 ****  ****    0 ROOT
