@<TRIPOS>MOLECULE
8IA
   26    26     1     0     0
SMALL
abcg2


@<TRIPOS>ATOM
      1 C01        106.7140    80.4770    52.3120 c6         1 8IA      -0.087900
      2 N01        106.1930    78.0310    51.8850 n3         1 8IA      -0.725600
      3 C02        106.0450    81.8150    52.6180 c6         1 8IA      -0.072400
      4 C03        105.0820    82.2240    51.5090 c6         1 8IA      -0.075400
      5 C04        104.0540    81.1290    51.2450 c6         1 8IA      -0.072400
      6 C05        104.7280    79.7920    50.9460 c6         1 8IA      -0.087900
      7 C06        105.6670    79.3800    52.0790 c6         1 8IA       0.186500
      8 C07        106.7720    77.4740    53.0870 c3         1 8IA       0.158100
      9 C08        107.0900    77.8740    50.7610 c3         1 8IA       0.158100
     10 H1         107.3830    80.2050    53.1320 hc         1 8IA       0.042950
     11 H2         107.3420    80.5860    51.4200 hc         1 8IA       0.042950
     12 H4         106.8020    82.5880    52.7690 hc         1 8IA       0.038450
     13 H5         105.4940    81.7350    53.5620 hc         1 8IA       0.038450
     14 H6         105.6490    82.4180    50.5920 hc         1 8IA       0.038200
     15 H7         104.5810    83.1600    51.7670 hc         1 8IA       0.038200
     16 H8         103.4030    81.4110    50.4140 hc         1 8IA       0.038450
     17 H9         103.4070    81.0210    52.1220 hc         1 8IA       0.038450
     18 H10        103.9770    79.0110    50.7940 hc         1 8IA       0.042950
     19 H11        105.2840    79.8810    50.0070 hc         1 8IA       0.042950
     20 H12        105.0530    79.3250    52.9880 h1         1 8IA       0.052700
     21 H13        106.0650    77.5500    53.9140 h1         1 8IA       0.027867
     22 H14        106.9890    76.4140    52.9350 h1         1 8IA       0.027867
     23 H15        107.7090    77.9550    53.4020 h1         1 8IA       0.027867
     24 H16        107.2990    76.8130    50.6110 h1         1 8IA       0.027867
     25 H17        106.6370    78.2440    49.8420 h1         1 8IA       0.027867
     26 H18        108.0590    78.3810    50.8830 h1         1 8IA       0.027867
@<TRIPOS>BOND
     1     1     3 1   
     2     1     7 1   
     3     1    10 1   
     4     1    11 1   
     5     2     7 1   
     6     2     8 1   
     7     2     9 1   
     8     3     4 1   
     9     3    12 1   
    10     3    13 1   
    11     4     5 1   
    12     4    14 1   
    13     4    15 1   
    14     5     6 1   
    15     5    16 1   
    16     5    17 1   
    17     6     7 1   
    18     6    18 1   
    19     6    19 1   
    20     7    20 1   
    21     8    21 1   
    22     8    22 1   
    23     8    23 1   
    24     9    24 1   
    25     9    25 1   
    26     9    26 1   
@<TRIPOS>SUBSTRUCTURE
     1 8IA         1 TEMP              0 ****  ****    0 ROOT
