@<TRIPOS>MOLECULE
8IB
   17    17     1     0     0
SMALL
No Charge or Current Charge


@<TRIPOS>ATOM
      1 C1          73.1480    90.3440     5.8750 ca         1 8IB      -0.139000
      2 C2          73.3260    88.9930     5.5330 ca         1 8IB      -0.108000
      3 C3          74.1480    88.1570     6.3150 ca         1 8IB      -0.144600
      4 C4          74.7840    88.6940     7.4530 ca         1 8IB       0.096100
      5 C5          74.6050    90.0460     7.7940 ca         1 8IB      -0.187000
      6 C6          73.7860    90.8970     7.0110 ca         1 8IB      -0.130600
      7 C7          73.5910    92.3660     7.3810 c          1 8IB       0.710600
      8 O1          74.1600    92.8050     8.3720 o          1 8IB      -0.753000
      9 O2          72.8730    93.0620     6.6770 o          1 8IB      -0.753000
     10 O3          75.5690    87.9120     8.2490 oh         1 8IB      -0.538100
     11 C8          74.3250    86.7130     5.9290 c          1 8IB       0.725600
     12 O4          73.3620    85.9670     6.0390 o          1 8IB      -0.746000
     13 O5          75.3840    86.3730     5.4160 o          1 8IB      -0.746000
     14 H1          72.5100    90.9630     5.2490 ha         1 8IB       0.104000
     15 H2          72.8270    88.5900     4.6550 ha         1 8IB       0.089000
     16 H3          75.1030    90.4410     8.6760 ha         1 8IB       0.104000
     17 H4          75.9160    88.4660     8.9790 ho         1 8IB       0.417000
@<TRIPOS>BOND
     1     1     2 ar  
     2     1     6 ar  
     3     1    14 1   
     4     2     3 ar  
     5     2    15 1   
     6     3     4 ar  
     7     3    11 1   
     8     4     5 ar  
     9     4    10 1   
    10     5     6 ar  
    11     5    16 1   
    12     6     7 1   
    13     7     8 1   
    14     7     9 1   
    15    10    17 1   
    16    11    12 1   
    17    11    13 1   
@<TRIPOS>SUBSTRUCTURE
     1 8IB         1 TEMP              0 ****  ****    0 ROOT
