@<TRIPOS>MOLECULE
8IB
   17    17     1     0     0
SMALL
abcg2


@<TRIPOS>ATOM
      1 C1          73.1390    90.3430     5.8860 ca         1 8IB      -0.139000
      2 C2          73.3110    89.0010     5.5690 ca         1 8IB      -0.108000
      3 C3          74.1360    88.1690     6.3250 ca         1 8IB      -0.144600
      4 C4          74.7720    88.7230     7.4410 ca         1 8IB       0.096100
      5 C5          74.5890    90.0610     7.7720 ca         1 8IB      -0.187000
      6 C6          73.7790    90.8900     6.9970 ca         1 8IB      -0.130600
      7 C7          73.6030    92.3600     7.3720 c          1 8IB       0.710600
      8 O1          74.2030    92.7620     8.4030 o          1 8IB      -0.753000
      9 O2          72.8740    93.0600     6.6230 o          1 8IB      -0.753000
     10 O3          75.5630    87.9030     8.2060 oh         1 8IB      -0.538100
     11 C8          74.3380    86.7170     5.9150 c          1 8IB       0.725600
     12 O4          73.3330    85.9660     5.9820 o          1 8IB      -0.746000
     13 O5          75.4860    86.4000     5.5170 o          1 8IB      -0.746000
     14 H1          72.5070    90.9750     5.2780 ha         1 8IB       0.104000
     15 H2          72.8000    88.5820     4.7100 ha         1 8IB       0.089000
     16 H3          75.0810    90.4730     8.6450 ha         1 8IB       0.104000
     17 H4          75.9020    88.4030     8.9600 ho         1 8IB       0.417000
@<TRIPOS>BOND
     1     1     2 ar  
     2     1     6 ar  
     3     1    14 1   
     4     2     3 ar  
     5     2    15 1   
     6     3     4 ar  
     7     3    11 1   
     8     4     5 ar  
     9     4    10 1   
    10     5     6 ar  
    11     5    16 1   
    12     6     7 1   
    13     7     8 1   
    14     7     9 1   
    15    10    17 1   
    16    11    12 1   
    17    11    13 1   
@<TRIPOS>SUBSTRUCTURE
     1 8IB         1 TEMP              0 ****  ****    0 ROOT
