@<TRIPOS>MOLECULE
8ID
   70    74     1     0     0
SMALL
abcg2


@<TRIPOS>ATOM
      1 O7N          8.9730    -2.6360    -0.9540 o          1 8ID      -0.610100
      2 C7N          7.8620    -2.7190    -1.4510 c          1 8ID       0.629700
      3 N7N          7.5740    -3.4660    -2.5180 nt         1 8ID      -0.593000
      4 C3N          6.7170    -1.9520    -0.8530 ca         1 8ID      -0.192600
      5 C4N          5.3670    -2.2300    -1.0800 ca         1 8ID      -0.019000
      6 C5N          4.4020    -1.4700    -0.4570 ca         1 8ID      -0.061000
      7 C6N          4.7790    -0.4440     0.3870 ca         1 8ID       0.102700
      8 C2N          7.0360    -0.9280     0.0050 ca         1 8ID      -0.069000
      9 N1N          6.0750    -0.1960     0.5910 na         1 8ID       0.009300
     10 C1           6.5160     0.8870     1.5370 c5         1 8ID       0.283300
     11 C2           7.4850     1.8670     0.8460 c5         1 8ID       0.071300
     12 O2           8.8030     1.5540     1.1880 oh         1 8ID      -0.716000
     13 C3           6.9930     3.2230     1.3770 c5         1 8ID       0.113300
     14 O3           7.5120     3.4890     2.6490 oh         1 8ID      -0.699000
     15 O4           5.4300     1.6060     1.9680 os         1 8ID      -0.381000
     16 C4           5.5030     2.9630     1.5050 c5         1 8ID       0.148300
     17 C5           4.7660     3.1660     0.1940 c3         1 8ID       0.206600
     18 O5           3.4250     2.7740     0.3540 os         1 8ID      -0.571400
     19 PN           2.6060     2.3180    -1.0050 p5         1 8ID       1.455800
     20 O1N          3.3150     1.1660    -1.6410 o          1 8ID      -0.844500
     21 O2N          2.2440     3.5340    -1.7930 o          1 8ID      -0.844500
     22 OPP          1.2380     1.8210    -0.2470 os         1 8ID      -0.670800
     23 PA           0.9610     0.3340     0.3760 p5         1 8ID       1.484800
     24 O1A          1.9660    -0.0160     1.4300 o          1 8ID      -0.864000
     25 O2A          0.6840    -0.6550    -0.7260 o          1 8ID      -0.864000
     26 O5B         -0.4470     0.7880     1.0920 os         1 8ID      -0.551400
     27 C5B         -1.0570    -0.1380     1.9630 c3         1 8ID       0.212600
     28 C4B         -2.4660     0.3160     2.3080 c5         1 8ID       0.168300
     29 O4B         -3.2590     0.5920     1.1440 os         1 8ID      -0.408000
     30 C1B         -4.3640    -0.2630     1.1080 c5         1 8ID       0.320300
     31 C2B         -3.9570    -1.4780     1.9330 c5         1 8ID       0.068300
     32 O2B         -5.0870    -2.1950     2.3250 oh         1 8ID      -0.699000
     33 C3B         -3.2000    -0.7840     3.0720 c5         1 8ID       0.099300
     34 O3B         -4.0910    -0.2030     3.9880 oh         1 8ID      -0.710000
     35 N9A         -4.7700    -0.5490    -0.2520 na         1 8ID      -0.264300
     36 C8A         -4.0480    -0.9320    -1.3640 cc         1 8ID       0.406700
     37 I8A         -1.9700    -0.9620    -1.3840 i          1 8ID       0.081800
     38 N7A         -4.7940    -1.1880    -2.3950 nd         1 8ID      -0.559100
     39 C5A         -6.0770    -0.9810    -1.9600 ca         1 8ID      -0.092600
     40 C6A         -7.3280    -1.0940    -2.5920 ca         1 8ID       0.439900
     41 N6A         -7.4620    -1.4680    -3.8650 nv         1 8ID      -1.075900
     42 C4A         -6.0860    -0.5810    -0.6360 ca         1 8ID       0.124500
     43 N3A         -7.1610    -0.2870     0.0890 nb         1 8ID      -0.209000
     44 C2A         -8.2760    -0.4220    -0.6080 ca         1 8ID       0.161900
     45 N1A         -8.4190    -0.8030    -1.8740 nb         1 8ID      -0.318000
     46 H7N1         8.3050    -4.0020    -2.9580 hn         1 8ID       0.324000
     47 H7N2         6.6820    -3.4570    -2.9810 hn         1 8ID       0.324000
     48 H4N          5.0620    -3.0440    -1.7230 ha         1 8ID       0.136000
     49 H5N          3.3480    -1.6470    -0.6110 ha         1 8ID       0.219000
     50 H6N          4.0430     0.1430     0.9170 h4         1 8ID       0.272000
     51 H2N          8.0600    -0.6760     0.2410 h4         1 8ID       0.178000
     52 H1           6.9900     0.3610     2.3700 h2         1 8ID       0.113700
     53 H2           7.3380     1.8340    -0.2400 h1         1 8ID       0.072700
     54 HO2          9.3920     1.8950     0.5070 ho         1 8ID       0.523000
     55 H3           7.2110     4.0270     0.6620 h1         1 8ID       0.066700
     56 HO3          8.4610     3.3230     2.6290 ho         1 8ID       0.511000
     57 H4           5.0470     3.5830     2.2800 h1         1 8ID       0.128700
     58 H5'1         4.8410     4.2280    -0.0680 h1         1 8ID       0.022200
     59 H5'2         5.2520     2.6070    -0.6150 h1         1 8ID       0.022200
     60 H5A1        -1.0800    -1.1440     1.5300 h1         1 8ID       0.015700
     61 H5A2        -0.5030    -0.2100     2.9060 h1         1 8ID       0.015700
     62 H4B         -2.4120     1.2320     2.9050 h1         1 8ID       0.094700
     63 H1B         -5.2460     0.2020     1.5650 h2         1 8ID       0.101700
     64 H2B         -3.2570    -2.0990     1.3600 h1         1 8ID       0.068700
     65 HO2A        -4.8150    -3.0770     2.5990 ho         1 8ID       0.501000
     66 H3B         -2.5000    -1.4670     3.5710 h1         1 8ID       0.049700
     67 HO3A        -4.7600    -0.8620     4.2060 ho         1 8ID       0.509000
     68 H6A1        -6.6640    -1.7340    -4.4150 hn         1 8ID       0.499000
     69 H6A2        -8.3760    -1.5860    -4.2650 hn         1 8ID       0.499000
     70 H2A         -9.1980    -0.1950    -0.0830 h5         1 8ID       0.032100
@<TRIPOS>BOND
     1     1     2 2   
     2     2     3 1   
     3     2     4 1   
     4     3    46 1   
     5     3    47 1   
     6     4     5 ar  
     7     4     8 ar  
     8     5     6 ar  
     9     5    48 1   
    10     6     7 ar  
    11     6    49 1   
    12     7     9 2   
    13     7    50 1   
    14     8     9 1   
    15     8    51 1   
    16     9    10 1   
    17    10    11 1   
    18    10    15 1   
    19    10    52 1   
    20    11    12 1   
    21    11    13 1   
    22    11    53 1   
    23    12    54 1   
    24    13    14 1   
    25    13    16 1   
    26    13    55 1   
    27    14    56 1   
    28    15    16 1   
    29    16    17 1   
    30    16    57 1   
    31    17    18 1   
    32    17    58 1   
    33    17    59 1   
    34    18    19 1   
    35    19    20 1   
    36    19    21 1   
    37    19    22 1   
    38    22    23 1   
    39    23    24 1   
    40    23    25 1   
    41    23    26 1   
    42    26    27 1   
    43    27    28 1   
    44    27    60 1   
    45    27    61 1   
    46    28    29 1   
    47    28    33 1   
    48    28    62 1   
    49    29    30 1   
    50    30    31 1   
    51    30    35 1   
    52    30    63 1   
    53    31    32 1   
    54    31    33 1   
    55    31    64 1   
    56    32    65 1   
    57    33    34 1   
    58    33    66 1   
    59    34    67 1   
    60    35    36 1   
    61    35    42 1   
    62    36    37 1   
    63    36    38 2   
    64    38    39 1   
    65    39    40 ar  
    66    39    42 ar  
    67    40    41 1   
    68    40    45 ar  
    69    41    68 1   
    70    41    69 1   
    71    42    43 ar  
    72    43    44 ar  
    73    44    45 ar  
    74    44    70 1   
@<TRIPOS>SUBSTRUCTURE
     1 8ID         1 TEMP              0 ****  ****    0 ROOT
