@<TRIPOS>MOLECULE
8ID
   70    74     1     0     0
SMALL
No Charge or Current Charge


@<TRIPOS>ATOM
      1 O7N          5.3930    -4.9400    -1.0080 o          1 8ID      -0.610100
      2 C7N          4.8670    -4.2640    -1.8770 c          1 8ID       0.629700
      3 N7N          4.6660    -4.8060    -3.0960 nt         1 8ID      -0.593000
      4 C3N          4.4290    -2.8370    -1.6370 ca         1 8ID      -0.192600
      5 C4N          3.8110    -2.0580    -2.6420 ca         1 8ID      -0.019000
      6 C5N          3.4430    -0.7340    -2.3600 ca         1 8ID      -0.061000
      7 C6N          3.6840    -0.1920    -1.0880 ca         1 8ID       0.102700
      8 C2N          4.6450    -2.2510    -0.3670 ca         1 8ID      -0.069000
      9 N1N          4.2690    -0.9350    -0.0540 na         1 8ID       0.009300
     10 C1           4.4900    -0.3650     1.2830 c5         1 8ID       0.283300
     11 C2           5.7040     0.6070     1.4150 c5         1 8ID       0.071300
     12 O2           6.9800    -0.0610     1.5130 oh         1 8ID      -0.716000
     13 C3           5.3250     1.3060     2.7480 c5         1 8ID       0.113300
     14 O3           5.6290     0.4430     3.8520 oh         1 8ID      -0.699000
     15 O4           3.3420     0.4120     1.7050 os         1 8ID      -0.381000
     16 C4           3.7850     1.5170     2.5490 c5         1 8ID       0.148300
     17 C5           3.4060     2.8820     1.9000 c3         1 8ID       0.206600
     18 O5           3.6460     2.8450     0.4870 os         1 8ID      -0.571400
     19 PN           3.5110     4.1960    -0.3790 p5         1 8ID       1.455800
     20 O1N          4.0370     4.0170    -1.7630 o          1 8ID      -0.844500
     21 O2N          4.2190     5.3230     0.2970 o          1 8ID      -0.844500
     22 OPP          1.9530     4.4030    -0.2920 os         1 8ID      -0.670800
     23 PA           1.1050     3.6020    -1.3480 p5         1 8ID       1.484800
     24 O1A          1.4960     2.1760    -1.5480 o          1 8ID      -0.864000
     25 O2A          0.9680     4.3480    -2.6360 o          1 8ID      -0.864000
     26 O5B         -0.2870     3.6830    -0.5420 os         1 8ID      -0.551400
     27 C5B         -0.4470     2.9330     0.6700 c3         1 8ID       0.212600
     28 C4B         -1.9440     2.5560     0.8290 c5         1 8ID       0.168300
     29 O4B         -2.2570     1.4210    -0.0330 os         1 8ID      -0.408000
     30 C1B         -2.8930     0.4070     0.7630 c5         1 8ID       0.320300
     31 C2B         -2.2490     0.5640     2.1760 c5         1 8ID       0.068300
     32 O2B         -2.9790    -0.0750     3.2460 oh         1 8ID      -0.699000
     33 C3B         -2.3260     2.1110     2.2910 c5         1 8ID       0.099300
     34 O3B         -3.6560     2.4910     2.6650 oh         1 8ID      -0.710000
     35 N9A         -2.8200    -0.8920     0.0900 na         1 8ID      -0.264300
     36 C8A         -1.6720    -1.6560    -0.1710 cc         1 8ID       0.406700
     37 I8A          0.3480    -1.0320     0.0850 i          1 8ID       0.081800
     38 N7A         -1.9680    -2.8600    -0.6910 nd         1 8ID      -0.559100
     39 C5A         -3.3640    -2.8380    -0.7500 ca         1 8ID      -0.092600
     40 C6A         -4.2580    -3.8310    -1.2050 ca         1 8ID       0.439900
     41 N6A         -3.8410    -5.0360    -1.6780 nv         1 8ID      -1.075900
     42 C4A         -3.8900    -1.6570    -0.2860 ca         1 8ID       0.124500
     43 N3A         -5.2190    -1.4280    -0.2500 nb         1 8ID      -0.209000
     44 C2A         -6.0010    -2.4370    -0.7030 ca         1 8ID       0.161900
     45 N1A         -5.5850    -3.6360    -1.1800 nb         1 8ID      -0.318000
     46 H7N1         4.9590    -5.7570    -3.2620 hn         1 8ID       0.324000
     47 H7N2         4.2360    -4.2680    -3.8320 hn         1 8ID       0.324000
     48 H4N          3.6160    -2.4560    -3.6350 ha         1 8ID       0.136000
     49 H5N          2.9670    -0.1200    -3.1240 ha         1 8ID       0.219000
     50 H6N          3.3930     0.8330    -0.8630 h4         1 8ID       0.272000
     51 H2N          5.1300    -2.8220     0.4290 h4         1 8ID       0.178000
     52 H1           4.6180    -1.2110     1.9690 h2         1 8ID       0.113700
     53 H2           5.7060     1.3260     0.5820 h1         1 8ID       0.072700
     54 HO2          7.6620     0.5270     1.1050 ho         1 8ID       0.523000
     55 H3           5.8520     2.2660     2.8590 h1         1 8ID       0.066700
     56 HO3          6.4200    -0.0680     3.5470 ho         1 8ID       0.511000
     57 H4           3.2690     1.4580     3.5170 h1         1 8ID       0.128700
     58 H5'1         2.3430     3.0740     2.0940 h1         1 8ID       0.022200
     59 H5'2         3.9830     3.6810     2.3830 h1         1 8ID       0.022200
     60 H5A1         0.1670     2.0240     0.6810 h1         1 8ID       0.015700
     61 H5A2        -0.1450     3.5530     1.5240 h1         1 8ID       0.015700
     62 H4B         -2.5500     3.4190     0.5240 h1         1 8ID       0.094700
     63 H1B         -3.9630     0.6420     0.8350 h2         1 8ID       0.101700
     64 H2B         -1.2000     0.2390     2.1800 h1         1 8ID       0.068700
     65 HO2A        -2.8000    -1.0450     3.1960 ho         1 8ID       0.501000
     66 H3B         -1.6060     2.4890     3.0300 h1         1 8ID       0.049700
     67 HO3A        -3.9580     1.7380     3.2320 ho         1 8ID       0.509000
     68 H6A1        -2.8710    -5.2850    -1.5000 hn         1 8ID       0.499000
     69 H6A2        -4.5110    -5.8000    -1.7070 hn         1 8ID       0.499000
     70 H2A         -7.0770    -2.2670    -0.6810 h5         1 8ID       0.032100
@<TRIPOS>BOND
     1     1     2 2   
     2     2     3 1   
     3     2     4 1   
     4     3    46 1   
     5     3    47 1   
     6     4     5 ar  
     7     4     8 ar  
     8     5     6 ar  
     9     5    48 1   
    10     6     7 ar  
    11     6    49 1   
    12     7     9 2   
    13     7    50 1   
    14     8     9 1   
    15     8    51 1   
    16     9    10 1   
    17    10    11 1   
    18    10    15 1   
    19    10    52 1   
    20    11    12 1   
    21    11    13 1   
    22    11    53 1   
    23    12    54 1   
    24    13    14 1   
    25    13    16 1   
    26    13    55 1   
    27    14    56 1   
    28    15    16 1   
    29    16    17 1   
    30    16    57 1   
    31    17    18 1   
    32    17    58 1   
    33    17    59 1   
    34    18    19 1   
    35    19    20 1   
    36    19    21 1   
    37    19    22 1   
    38    22    23 1   
    39    23    24 1   
    40    23    25 1   
    41    23    26 1   
    42    26    27 1   
    43    27    28 1   
    44    27    60 1   
    45    27    61 1   
    46    28    29 1   
    47    28    33 1   
    48    28    62 1   
    49    29    30 1   
    50    30    31 1   
    51    30    35 1   
    52    30    63 1   
    53    31    32 1   
    54    31    33 1   
    55    31    64 1   
    56    32    65 1   
    57    33    34 1   
    58    33    66 1   
    59    34    67 1   
    60    35    36 1   
    61    35    42 1   
    62    36    37 1   
    63    36    38 2   
    64    38    39 1   
    65    39    40 ar  
    66    39    42 ar  
    67    40    41 1   
    68    40    45 ar  
    69    41    68 1   
    70    41    69 1   
    71    42    43 ar  
    72    43    44 ar  
    73    44    45 ar  
    74    44    70 1   
@<TRIPOS>SUBSTRUCTURE
     1 8ID         1 TEMP              0 ****  ****    0 ROOT
