@<TRIPOS>MOLECULE
8IE
   41    45     1     0     0
SMALL
bcc


@<TRIPOS>ATOM
      1 C10         23.1970    57.8940    23.2290 ca         1 8IE      -0.125000
      2 C15         16.4280    57.1180    28.3730 cc         1 8IE      -0.183400
      3 C17         14.0010    57.2270    28.1190 cc         1 8IE      -0.143400
      4 C22         19.9060    57.5440    28.3800 cc         1 8IE       0.366800
      5 C01         19.6650    61.5970    23.3810 c3         1 8IE      -0.087100
      6 C02         20.0420    60.5790    24.4540 c6         1 8IE      -0.020400
      7 C03         18.7890    59.8230    24.8820 c6         1 8IE       0.198800
      8 C05         19.8590    57.6860    24.9860 c6         1 8IE       0.233100
      9 C06         21.0560    58.2630    24.2850 ca         1 8IE      -0.087300
     10 C07         21.1410    59.6300    24.0190 ca         1 8IE      -0.056300
     11 C08         22.2800    60.1090    23.3710 ca         1 8IE      -0.125000
     12 C09         23.2980    59.2560    22.9760 ca         1 8IE      -0.122000
     13 C11         22.0790    57.4070    23.8860 ca         1 8IE      -0.123000
     14 C12         18.2040    58.2520    26.6130 cc         1 8IE       0.766400
     15 C14         16.0480    57.8300    27.2520 cd         1 8IE       0.442100
     16 C18         14.6300    57.8880    27.1150 cd         1 8IE      -0.225800
     17 C19         17.8050    57.0350    28.6700 cc         1 8IE       0.006700
     18 N04         19.1670    58.7210    25.7510 nh         1 8IE      -0.749300
     19 N13         16.9480    58.3600    26.3730 nd         1 8IE      -0.710000
     20 N20         18.4660    56.5640    29.6860 nd         1 8IE      -0.088000
     21 N21         19.7670    56.8900    29.4950 nd         1 8IE      -0.372700
     22 N24         18.6660    57.6480    27.7790 na         1 8IE      -0.271000
     23 S16         15.0890    56.5220    29.2540 ss         1 8IE       0.098500
     24 H1          23.9870    57.2190    22.9280 ha         1 8IE       0.135000
     25 H2          12.9380    57.1060    28.2610 h4         1 8IE       0.173000
     26 H3          18.8500    62.2310    23.7340 hc         1 8IE       0.040033
     27 H4          20.4950    62.2550    23.1260 hc         1 8IE       0.040033
     28 H5          19.3350    61.1000    22.4680 hc         1 8IE       0.040033
     29 H6          20.4080    61.1250    25.3310 hc         1 8IE       0.067700
     30 H7          18.1250    60.4990    25.4200 h1         1 8IE       0.057200
     31 H8          18.2420    59.4630    24.0000 h1         1 8IE       0.057200
     32 H9          19.1690    57.2500    24.2480 h1         1 8IE       0.056200
     33 H10         20.1660    56.8650    25.6340 h1         1 8IE       0.056200
     34 H11         22.3790    61.1690    23.1710 ha         1 8IE       0.132000
     35 H12         24.1710    59.6540    22.4740 ha         1 8IE       0.133000
     36 H13         21.9990    56.3480    24.1010 ha         1 8IE       0.131000
     37 H14         14.1220    58.3920    26.3060 ha         1 8IE       0.168000
     38 H15         21.9060    58.0360    28.7300 hc         1 8IE       0.064033
     39 H16         21.6010    57.6100    27.0520 hc         1 8IE       0.064033
     40 H17         21.0830    59.1780    27.6600 hc         1 8IE       0.064033
     41 C23         21.1890    58.1270    27.9180 c3         1 8IE      -0.098400
@<TRIPOS>BOND
     1     1    12 ar  
     2     1    13 ar  
     3     1    24 1   
     4     2    15 2   
     5     2    17 1   
     6     2    23 1   
     7     3    16 2   
     8     3    23 1   
     9     3    25 1   
    10     4    21 2   
    11     4    22 1   
    12     4    41 1   
    13     5     6 1   
    14     5    26 1   
    15     5    27 1   
    16     5    28 1   
    17     6     7 1   
    18     6    10 1   
    19     6    29 1   
    20     7    18 1   
    21     7    30 1   
    22     7    31 1   
    23     8     9 1   
    24     8    18 1   
    25     8    32 1   
    26     8    33 1   
    27     9    10 ar  
    28     9    13 ar  
    29    10    11 ar  
    30    11    12 ar  
    31    11    34 1   
    32    12    35 1   
    33    13    36 1   
    34    14    18 1   
    35    14    19 2   
    36    14    22 1   
    37    15    16 1   
    38    15    19 1   
    39    16    37 1   
    40    17    20 2   
    41    17    22 1   
    42    20    21 1   
    43    38    41 1   
    44    39    41 1   
    45    40    41 1   
@<TRIPOS>SUBSTRUCTURE
     1 8IE         1 TEMP              0 ****  ****    0 ROOT
