@<TRIPOS>MOLECULE
8IE
   41    45     1     0     0
SMALL
No Charge or Current Charge


@<TRIPOS>ATOM
      1 C10         23.1160    57.7470    23.0160 ca         1 8IE      -0.107000
      2 C15         16.4040    57.1920    28.4530 cc         1 8IE      -0.245000
      3 C17         13.9410    56.9690    28.1020 cc         1 8IE      -0.193400
      4 C22         19.8650    57.8240    28.4580 cc         1 8IE       0.366800
      5 C01         19.8710    61.7600    23.6110 c3         1 8IE      -0.087100
      6 C02         20.1510    60.5640    24.5670 c6         1 8IE      -0.020400
      7 C03         18.8190    59.8700    24.9530 c6         1 8IE       0.198800
      8 C05         19.7460    57.6160    24.8400 c6         1 8IE       0.233100
      9 C06         20.9940    58.1730    24.1430 ca         1 8IE      -0.087300
     10 C07         21.1920    59.5700    24.0000 ca         1 8IE      -0.056300
     11 C08         22.3750    60.0340    23.3840 ca         1 8IE      -0.107000
     12 C09         23.3280    59.1280    22.8900 ca         1 8IE      -0.104000
     13 C11         21.9550    57.2720    23.6440 ca         1 8IE      -0.105000
     14 C12         18.2050    58.1850    26.6470 cc         1 8IE       0.766400
     15 C14         16.0030    57.6190    27.2220 cd         1 8IE       0.376800
     16 C18         14.6100    57.4930    27.0140 cd         1 8IE      -0.275800
     17 C19         17.7560    57.2620    28.8210 cc         1 8IE      -0.044000
     18 N04         19.0880    58.6230    25.6980 nh         1 8IE      -0.749300
     19 N13         16.9080    58.1280    26.2930 nd         1 8IE      -0.710000
     20 N20         18.4220    56.9770    29.9190 nd         1 8IE      -0.088000
     21 N21         19.7490    57.3350    29.6910 nd         1 8IE      -0.372700
     22 N24         18.6160    57.7250    27.9050 na         1 8IE      -0.220300
     23 S16         15.0580    56.6240    29.4280 ss         1 8IE       0.225400
     24 H1          23.8550    57.0460    22.6340 ha         1 8IE       0.117000
     25 H2          12.8840    56.7620    28.2320 h4         1 8IE       0.223000
     26 H3          19.0750    62.4020    24.0070 hc         1 8IE       0.040033
     27 H4          20.7540    62.3960    23.4790 hc         1 8IE       0.040033
     28 H5          19.5550    61.4100    22.6210 hc         1 8IE       0.040033
     29 H6          20.5740    60.9970    25.4830 hc         1 8IE       0.067700
     30 H7          18.2110    60.5610    25.5570 h1         1 8IE       0.057200
     31 H8          18.2460    59.6450    24.0410 h1         1 8IE       0.057200
     32 H9          19.0430    57.2600    24.0730 h1         1 8IE       0.056200
     33 H10         20.0340    56.7390    25.4400 h1         1 8IE       0.056200
     34 H11         22.5710    61.0980    23.2900 ha         1 8IE       0.114000
     35 H12         24.2340    59.4980    22.4140 ha         1 8IE       0.115000
     36 H13         21.8020    56.2000    23.7470 ha         1 8IE       0.113000
     37 H14         14.1290    57.7860    26.0860 ha         1 8IE       0.218000
     38 H15         21.9150    58.4540    28.6490 hc         1 8IE       0.064033
     39 H16         21.5230    57.7470    27.0790 hc         1 8IE       0.064033
     40 H17         20.9800    59.3930    27.4820 hc         1 8IE       0.064033
     41 C23         21.1370    58.3850    27.8800 c3         1 8IE      -0.098400
@<TRIPOS>BOND
     1     1    12 ar  
     2     1    13 ar  
     3     1    24 1   
     4     2    15 2   
     5     2    17 1   
     6     2    23 1   
     7     3    16 2   
     8     3    23 1   
     9     3    25 1   
    10     4    21 2   
    11     4    22 1   
    12     4    41 1   
    13     5     6 1   
    14     5    26 1   
    15     5    27 1   
    16     5    28 1   
    17     6     7 1   
    18     6    10 1   
    19     6    29 1   
    20     7    18 1   
    21     7    30 1   
    22     7    31 1   
    23     8     9 1   
    24     8    18 1   
    25     8    32 1   
    26     8    33 1   
    27     9    10 ar  
    28     9    13 ar  
    29    10    11 ar  
    30    11    12 ar  
    31    11    34 1   
    32    12    35 1   
    33    13    36 1   
    34    14    18 1   
    35    14    19 2   
    36    14    22 1   
    37    15    16 1   
    38    15    19 1   
    39    16    37 1   
    40    17    20 2   
    41    17    22 1   
    42    20    21 1   
    43    38    41 1   
    44    39    41 1   
    45    40    41 1   
@<TRIPOS>SUBSTRUCTURE
     1 8IE         1 TEMP              0 ****  ****    0 ROOT
