@<TRIPOS>MOLECULE
8IF
   57    57     1     0     0
SMALL
bcc


@<TRIPOS>ATOM
      1 C1          28.3140    -2.0230     6.6110 c3         1 8IF      -0.037900
      2 C2          27.5140    -3.1090     7.2090 c2         1 8IF       0.068900
      3 C3          27.0410    -4.4660     8.9190 c          1 8IF       0.744600
      4 C4          26.0170    -4.7520     7.8350 c5         1 8IF      -0.265500
      5 C5          26.1370    -6.2310     7.4400 c          1 8IF       0.597100
      6 C6          24.8660    -7.0440     7.4410 c3         1 8IF      -0.153700
      7 C7          24.0690    -6.6680     6.1840 c3         1 8IF      -0.090100
      8 C8          25.1300    -8.5440     7.5060 c3         1 8IF      -0.059400
      9 C9          25.6130    -9.0460     8.8730 c3         1 8IF      -0.166700
     10 O1          27.8870    -3.5160     8.4870 os         1 8IF      -0.312200
     11 O2          27.1570    -4.9780     9.9920 o          1 8IF      -0.543500
     12 O3          27.2160    -6.6650     7.1220 o          1 8IF      -0.500100
     13 C10         26.0840   -10.4980     8.7820 c3         1 8IF      -0.080100
     14 C11         24.4860    -8.9350     9.8910 c          1 8IF       0.566100
     15 O4          23.4590    -9.5600     9.7420 o          1 8IF      -0.524100
     16 C12         24.7300    -8.0440    11.0780 c3         1 8IF      -0.183400
     17 C13         23.5200    -7.8080    11.9710 c3         1 8IF      -0.059400
     18 C14         22.4300    -6.9210    11.3510 c3         1 8IF      -0.071400
     19 C15         22.5230    -5.4420    11.7230 c3         1 8IF      -0.078400
     20 C16         23.8200    -4.7670    11.2940 c3         1 8IF      -0.073400
     21 C17         23.8680    -3.2650    11.5650 c3         1 8IF      -0.077400
     22 C18         22.9210    -2.4500    10.6930 c3         1 8IF      -0.090100
     23 C19         26.4550    -3.7860     6.7750 c2         1 8IF      -0.017100
     24 O5          25.8010    -3.6120     5.6090 os         1 8IF      -0.306900
     25 C20         26.3870    -4.2430     4.4730 c3         1 8IF       0.118700
     26 H1          28.3170    -1.1410     7.2540 hc         1 8IF       0.065033
     27 H2          29.3520    -2.3280     6.4630 hc         1 8IF       0.065033
     28 H29         27.9010    -1.7400     5.6460 hc         1 8IF       0.065033
     29 H30         25.0100    -4.5310     8.2050 hc         1 8IF       0.117700
     30 H3          24.2720    -6.7180     8.3030 hc         1 8IF       0.070700
     31 H5          23.1010    -7.1660     6.2090 hc         1 8IF       0.046700
     32 H6          23.8850    -5.5950     6.1120 hc         1 8IF       0.046700
     33 H4          24.5920    -6.9860     5.2820 hc         1 8IF       0.046700
     34 H7          24.2120    -9.0750     7.2440 hc         1 8IF       0.062700
     35 H8          25.8650    -8.8150     6.7450 hc         1 8IF       0.062700
     36 H9          26.4540    -8.4340     9.2130 hc         1 8IF       0.066700
     37 H10         26.4090   -10.8770     9.7520 hc         1 8IF       0.042367
     38 H11         25.2900   -11.1470     8.4130 hc         1 8IF       0.042367
     39 H12         26.9280   -10.5740     8.0970 hc         1 8IF       0.042367
     40 H13         25.5490    -8.5110    11.6420 hc         1 8IF       0.067700
     41 H31         25.1590    -7.1060    10.7130 hc         1 8IF       0.067700
     42 H14         23.8600    -7.3600    12.9090 hc         1 8IF       0.047200
     43 H32         23.0980    -8.7770    12.2460 hc         1 8IF       0.047200
     44 H16         21.4500    -7.2870    11.6650 hc         1 8IF       0.041200
     45 H15         22.4420    -7.0150    10.2610 hc         1 8IF       0.041200
     46 H18         22.4080    -5.3350    12.8070 hc         1 8IF       0.037700
     47 H17         21.6710    -4.9210    11.2760 hc         1 8IF       0.037700
     48 H20         23.9810    -4.9420    10.2240 hc         1 8IF       0.034700
     49 H19         24.6600    -5.2400    11.8090 hc         1 8IF       0.034700
     50 H22         24.8900    -2.9120    11.4010 hc         1 8IF       0.039700
     51 H21         23.6510    -3.0800    12.6210 hc         1 8IF       0.039700
     52 H24         23.0240    -1.3820    10.8880 hc         1 8IF       0.030033
     53 H25         23.1300    -2.6130     9.6330 hc         1 8IF       0.030033
     54 H23         21.8760    -2.7120    10.8660 hc         1 8IF       0.030033
     55 H28         25.7730    -3.9810     3.6150 h1         1 8IF       0.042033
     56 H26         27.4070    -3.8910     4.3030 h1         1 8IF       0.042033
     57 H27         26.4020    -5.3300     4.5750 h1         1 8IF       0.042033
@<TRIPOS>BOND
     1     1     2 1   
     2     1    26 1   
     3     1    27 1   
     4     1    28 1   
     5     2    10 1   
     6     2    23 2   
     7     3     4 1   
     8     3    10 1   
     9     3    11 2   
    10     4     5 1   
    11     4    23 1   
    12     4    29 1   
    13     5     6 1   
    14     5    12 2   
    15     6     7 1   
    16     6     8 1   
    17     6    30 1   
    18     7    31 1   
    19     7    32 1   
    20     7    33 1   
    21     8     9 1   
    22     8    34 1   
    23     8    35 1   
    24     9    13 1   
    25     9    14 1   
    26     9    36 1   
    27    13    37 1   
    28    13    38 1   
    29    13    39 1   
    30    14    15 2   
    31    14    16 1   
    32    16    17 1   
    33    16    40 1   
    34    16    41 1   
    35    17    18 1   
    36    17    42 1   
    37    17    43 1   
    38    18    19 1   
    39    18    44 1   
    40    18    45 1   
    41    19    20 1   
    42    19    46 1   
    43    19    47 1   
    44    20    21 1   
    45    20    48 1   
    46    20    49 1   
    47    21    22 1   
    48    21    50 1   
    49    21    51 1   
    50    22    52 1   
    51    22    53 1   
    52    22    54 1   
    53    23    24 1   
    54    24    25 1   
    55    25    55 1   
    56    25    56 1   
    57    25    57 1   
@<TRIPOS>SUBSTRUCTURE
     1 8IF         1 TEMP              0 ****  ****    0 ROOT
