@<TRIPOS>MOLECULE
8IF
   57    57     1     0     0
SMALL
No Charge or Current Charge


@<TRIPOS>ATOM
      1 C1          27.6070    -2.1140     6.8550 c3         1 8IF      -0.037900
      2 C2          26.9930    -3.4240     7.3120 c2         1 8IF       0.068900
      3 C3          27.0490    -5.2120     8.6910 c          1 8IF       0.669100
      4 C4          25.8150    -5.3600     7.7960 c5         1 8IF      -0.265500
      5 C5          26.0540    -6.6650     7.0380 c          1 8IF       0.597100
      6 C6          24.9000    -7.7020     7.0300 c3         1 8IF      -0.153700
      7 C7          24.3410    -7.8570     5.5940 c3         1 8IF      -0.090100
      8 C8          25.3420    -9.0710     7.6220 c3         1 8IF      -0.059400
      9 C9          25.5150    -9.0920     9.1700 c3         1 8IF      -0.166700
     10 O1          27.6600    -4.0380     8.3260 os         1 8IF      -0.312200
     11 O2          27.4050    -5.9220     9.6190 o          1 8IF      -0.468000
     12 O3          27.0800    -6.8820     6.4060 o          1 8IF      -0.500100
     13 C10         26.2600   -10.3680     9.6310 c3         1 8IF      -0.080100
     14 C11         24.1680    -8.9860     9.9320 c          1 8IF       0.566100
     15 O4          23.1900    -9.6400     9.5890 o          1 8IF      -0.524100
     16 C12         24.1470    -8.1380    11.2200 c3         1 8IF      -0.183400
     17 C13         22.8070    -7.3990    11.4880 c3         1 8IF      -0.059400
     18 C14         22.5160    -6.2160    10.5300 c3         1 8IF      -0.071400
     19 C15         22.9260    -4.8140    11.0500 c3         1 8IF      -0.078400
     20 C16         24.4070    -4.6710    11.4770 c3         1 8IF      -0.073400
     21 C17         24.8400    -3.2280    11.8230 c3         1 8IF      -0.077400
     22 C18         24.8800    -2.2660    10.6160 c3         1 8IF      -0.090100
     23 C19         25.9140    -4.1250     6.9460 c2         1 8IF      -0.017100
     24 O5          24.9210    -3.9520     6.0140 os         1 8IF      -0.330100
     25 C20         24.8980    -2.8090     5.1470 c3         1 8IF       0.141900
     26 H1          27.6520    -1.4010     7.6870 hc         1 8IF       0.065033
     27 H2          28.6330    -2.2730     6.5030 hc         1 8IF       0.065033
     28 H29         27.0590    -1.6290     6.0450 hc         1 8IF       0.065033
     29 H30         24.9030    -5.4090     8.3920 hc         1 8IF       0.117700
     30 H3          24.0770    -7.3190     7.6420 hc         1 8IF       0.070700
     31 H5          23.4720    -8.5260     5.5840 hc         1 8IF       0.046700
     32 H6          24.0230    -6.8860     5.1960 hc         1 8IF       0.046700
     33 H4          25.1000    -8.2720     4.9180 hc         1 8IF       0.046700
     34 H7          24.6120    -9.8420     7.3410 hc         1 8IF       0.062700
     35 H8          26.2840    -9.3720     7.1450 hc         1 8IF       0.062700
     36 H9          26.1530    -8.2580     9.4780 hc         1 8IF       0.066700
     37 H10         26.4030   -10.3630    10.7180 hc         1 8IF       0.042367
     38 H11         25.6940   -11.2700     9.3650 hc         1 8IF       0.042367
     39 H12         27.2490   -10.4330     9.1610 hc         1 8IF       0.042367
     40 H13         24.3320    -8.8340    12.0470 hc         1 8IF       0.067700
     41 H31         25.0010    -7.4540    11.2380 hc         1 8IF       0.067700
     42 H14         22.7910    -7.0380    12.5250 hc         1 8IF       0.047200
     43 H32         21.9850    -8.1220    11.4170 hc         1 8IF       0.047200
     44 H16         21.4360    -6.1920    10.3350 hc         1 8IF       0.041200
     45 H15         22.9880    -6.3990     9.5590 hc         1 8IF       0.041200
     46 H18         22.2870    -4.5500    11.9030 hc         1 8IF       0.037700
     47 H17         22.7000    -4.0900    10.2590 hc         1 8IF       0.037700
     48 H20         25.0550    -5.0570    10.6860 hc         1 8IF       0.034700
     49 H19         24.5840    -5.2980    12.3590 hc         1 8IF       0.034700
     50 H22         25.8430    -3.2640    12.2670 hc         1 8IF       0.039700
     51 H21         24.1730    -2.8190    12.5920 hc         1 8IF       0.039700
     52 H24         25.2820    -1.2920    10.9210 hc         1 8IF       0.030033
     53 H25         25.5210    -2.6650     9.8220 hc         1 8IF       0.030033
     54 H23         23.8780    -2.1020    10.2040 hc         1 8IF       0.030033
     55 H28         24.0310    -2.8600     4.4770 h1         1 8IF       0.042033
     56 H26         24.8200    -1.8810     5.7280 h1         1 8IF       0.042033
     57 H27         25.8020    -2.7720     4.5250 h1         1 8IF       0.042033
@<TRIPOS>BOND
     1     1     2 1   
     2     1    26 1   
     3     1    27 1   
     4     1    28 1   
     5     2    10 1   
     6     2    23 2   
     7     3     4 1   
     8     3    10 1   
     9     3    11 2   
    10     4     5 1   
    11     4    23 1   
    12     4    29 1   
    13     5     6 1   
    14     5    12 2   
    15     6     7 1   
    16     6     8 1   
    17     6    30 1   
    18     7    31 1   
    19     7    32 1   
    20     7    33 1   
    21     8     9 1   
    22     8    34 1   
    23     8    35 1   
    24     9    13 1   
    25     9    14 1   
    26     9    36 1   
    27    13    37 1   
    28    13    38 1   
    29    13    39 1   
    30    14    15 2   
    31    14    16 1   
    32    16    17 1   
    33    16    40 1   
    34    16    41 1   
    35    17    18 1   
    36    17    42 1   
    37    17    43 1   
    38    18    19 1   
    39    18    44 1   
    40    18    45 1   
    41    19    20 1   
    42    19    46 1   
    43    19    47 1   
    44    20    21 1   
    45    20    48 1   
    46    20    49 1   
    47    21    22 1   
    48    21    50 1   
    49    21    51 1   
    50    22    52 1   
    51    22    53 1   
    52    22    54 1   
    53    23    24 1   
    54    24    25 1   
    55    25    55 1   
    56    25    56 1   
    57    25    57 1   
@<TRIPOS>SUBSTRUCTURE
     1 8IF         1 TEMP              0 ****  ****    0 ROOT
