@<TRIPOS>MOLECULE
8IG
   16    17     1     0     0
SMALL
No Charge or Current Charge


@<TRIPOS>ATOM
      1 I            0.1520     0.0450    -2.6320 i          1 8IG      -0.131800
      2 O6          -2.6400     0.0220     2.8780 o          1 8IG      -0.508000
      3 C8           0.0760     0.0160    -0.5150 cc         1 8IG       0.488300
      4 N9           1.1780    -0.0220     0.3130 na         1 8IG      -0.293500
      5 N1          -0.5910    -0.0320     3.8640 ns         1 8IG      -0.461400
      6 C2           0.7680    -0.0610     3.8010 cc         1 8IG       0.750800
      7 N3           1.5330    -0.0650     2.7280 nd         1 8IG      -0.714100
      8 C4           0.7510    -0.0300     1.5920 cd         1 8IG       0.158400
      9 C5          -0.6500     0.0040     1.5110 cd         1 8IG       0.078500
     10 C6          -1.4220     0.0010     2.7770 c          1 8IG       0.524500
     11 N7          -1.0720     0.0330     0.1810 nd         1 8IG      -0.554000
     12 HN9          2.1390    -0.0400     0.0070 hn         1 8IG       0.375000
     13 HN21         2.3920     0.0750     4.8610 hn         1 8IG       0.508500
     14 HN22         0.9610     0.4120     5.7230 hn         1 8IG       0.508500
     15 HN11        -1.0350    -0.0620     4.7670 hn         1 8IG       0.323500
     16 N2           1.3970    -0.0870     4.9580 nv         1 8IG      -1.053200
@<TRIPOS>BOND
     1     1     3 1   
     2     2    10 2   
     3     3     4 1   
     4     3    11 2   
     5     4     8 1   
     6     4    12 1   
     7     5     6 1   
     8     5    10 1   
     9     5    15 1   
    10     6     7 2   
    11     6    16 1   
    12     7     8 1   
    13     8     9 2   
    14     9    10 1   
    15     9    11 1   
    16    13    16 1   
    17    14    16 1   
@<TRIPOS>SUBSTRUCTURE
     1 8IG         1 TEMP              0 ****  ****    0 ROOT
