@<TRIPOS>MOLECULE
8IG
   16    17     1     0     0
SMALL
abcg2


@<TRIPOS>ATOM
      1 I            0.1490    -0.0270    -2.5570 i          1 8IG      -0.131800
      2 O6          -2.6240     0.0200     2.8440 o          1 8IG      -0.508000
      3 C8           0.0320    -0.0130    -0.4900 cc         1 8IG       0.488300
      4 N9           1.1540    -0.0110     0.2910 na         1 8IG      -0.293500
      5 N1          -0.5640     0.0170     3.8160 ns         1 8IG      -0.461400
      6 C2           0.8020     0.0110     3.7890 cc         1 8IG       0.750800
      7 N3           1.4960     0.0040     2.6750 nd         1 8IG      -0.714100
      8 C4           0.7270    -0.0010     1.5800 cd         1 8IG       0.158400
      9 C5          -0.6540     0.0030     1.4980 cd         1 8IG       0.078500
     10 C6          -1.4140     0.0140     2.7040 c          1 8IG       0.524500
     11 N7          -1.0670    -0.0050     0.1890 nd         1 8IG      -0.554000
     12 HN9          2.1140    -0.0180    -0.0210 hn         1 8IG       0.375000
     13 HN21         2.4330     0.0810     4.9770 hn         1 8IG       0.508500
     14 HN22         0.9460     0.1260     5.8350 hn         1 8IG       0.508500
     15 HN11        -1.0250     0.0200     4.7180 hn         1 8IG       0.323500
     16 N2           1.4320    -0.0130     4.9660 nv         1 8IG      -1.053200
@<TRIPOS>BOND
     1     1     3 1   
     2     2    10 2   
     3     3     4 1   
     4     3    11 2   
     5     4     8 1   
     6     4    12 1   
     7     5     6 1   
     8     5    10 1   
     9     5    15 1   
    10     6     7 2   
    11     6    16 1   
    12     7     8 1   
    13     8     9 2   
    14     9    10 1   
    15     9    11 1   
    16    13    16 1   
    17    14    16 1   
@<TRIPOS>SUBSTRUCTURE
     1 8IG         1 TEMP              0 ****  ****    0 ROOT
