@<TRIPOS>MOLECULE
8IH
   36    37     1     0     0
SMALL
No Charge or Current Charge


@<TRIPOS>ATOM
      1 C4          28.2710     3.4270    -5.7700 ca         1 8IH       0.120000
      2 C5          27.4650     4.2010    -4.9200 ca         1 8IH      -0.080000
      3 C6          27.2330     3.8050    -3.5820 cp         1 8IH      -0.006000
      4 C7          26.3730     4.6300    -2.6870 cp         1 8IH      -0.050000
      5 C8          25.0020     4.7570    -3.0080 ca         1 8IH      -0.110000
      6 C10         24.6050     6.1440    -1.0480 ca         1 8IH       0.005700
      7 C15         22.7640     6.0370     0.6930 c          1 8IH       0.725000
      8 C1          27.8170     2.5980    -3.1290 ca         1 8IH      -0.080000
      9 C11         25.9700     6.0330    -0.7200 ca         1 8IH      -0.079000
     10 C12         26.8720     5.2970    -1.5270 ca         1 8IH      -0.183300
     11 C14         23.6690     6.9650    -0.1500 c3         1 8IH      -0.174400
     12 C16         22.8390     8.0270    -0.9250 c3         1 8IH      -0.051400
     13 C2          28.6240     1.8250    -3.9800 ca         1 8IH       0.120000
     14 C3          28.8540     2.2390    -5.3020 ca         1 8IH      -0.107000
     15 C9          24.1280     5.5010    -2.2030 ca         1 8IH      -0.074000
     16 F1          29.1880     5.3780    -2.1920 f          1 8IH      -0.122333
     17 F2          28.7070     6.2390    -0.2710 f          1 8IH      -0.122333
     18 F3          28.6760     4.0860    -0.5180 f          1 8IH      -0.122333
     19 O1          22.9160     6.0360     1.9060 o          1 8IH      -0.717000
     20 O2          21.9470     5.3310     0.1200 o          1 8IH      -0.717000
     21 Cl1         28.5520     3.9460    -7.4270 cl         1 8IH      -0.210500
     22 Cl2         29.3430     0.3330    -3.3910 cl         1 8IH      -0.210500
     23 H1          27.0210     5.1200    -5.2930 ha         1 8IH       0.143500
     24 H2          24.6110     4.2570    -3.8910 ha         1 8IH       0.107000
     25 H3          23.0650     9.8050    -2.1660 hc         1 8IH       0.016367
     26 H4          24.3770     9.5790    -0.9900 hc         1 8IH       0.016367
     27 H5          24.3080     8.5720    -2.4550 hc         1 8IH       0.016367
     28 H6          27.6360     2.2590    -2.1130 ha         1 8IH       0.143500
     29 H7          26.3290     6.5340     0.1770 ha         1 8IH       0.128000
     30 H8          24.2880     7.5220     0.5630 hc         1 8IH       0.044700
     31 H9          22.2030     8.5640    -0.2100 hc         1 8IH       0.044700
     32 H10         22.1600     7.5380    -1.6340 hc         1 8IH       0.044700
     33 H11         29.4780     1.6410    -5.9600 ha         1 8IH       0.134000
     34 H12         23.0780     5.5640    -2.4750 ha         1 8IH       0.147000
     35 C13         28.3620     5.2500    -1.1280 c3         1 8IH       0.353300
     36 C17         23.7030     9.0580    -1.6800 c3         1 8IH      -0.093100
@<TRIPOS>BOND
     1     1     2 ar  
     2     1    14 ar  
     3     1    21 1   
     4     2     3 ar  
     5     2    23 1   
     6     3     4 1   
     7     3     8 ar  
     8     4     5 ar  
     9     4    10 ar  
    10     5    15 ar  
    11     5    24 1   
    12     6     9 ar  
    13     6    11 1   
    14     6    15 ar  
    15     7    11 1   
    16     7    19 1   
    17     7    20 1   
    18     8    13 ar  
    19     8    28 1   
    20     9    10 ar  
    21     9    29 1   
    22    10    35 1   
    23    11    12 1   
    24    11    30 1   
    25    12    31 1   
    26    12    32 1   
    27    12    36 1   
    28    13    14 ar  
    29    13    22 1   
    30    14    33 1   
    31    15    34 1   
    32    16    35 1   
    33    17    35 1   
    34    18    35 1   
    35    25    36 1   
    36    26    36 1   
    37    27    36 1   
@<TRIPOS>SUBSTRUCTURE
     1 8IH         1 TEMP              0 ****  ****    0 ROOT
