@<TRIPOS>MOLECULE
8IH
   36    37     1     0     0
SMALL
abcg2


@<TRIPOS>ATOM
      1 C4          28.3210     3.4050    -5.6290 ca         1 8IH       0.120000
      2 C5          27.5730     4.2340    -4.8100 ca         1 8IH      -0.080000
      3 C6          27.2570     3.8140    -3.5230 cp         1 8IH      -0.006000
      4 C7          26.3860     4.6540    -2.6590 cp         1 8IH      -0.050000
      5 C8          25.0130     4.6110    -2.8820 ca         1 8IH      -0.110000
      6 C10         24.5960     6.1250    -1.0480 ca         1 8IH       0.005700
      7 C15         22.6920     5.8820     0.5210 c          1 8IH       0.725000
      8 C1          27.6880     2.5710    -3.0720 ca         1 8IH      -0.080000
      9 C11         25.9690     6.1810    -0.8340 ca         1 8IH      -0.079000
     10 C12         26.8600     5.4650    -1.6250 ca         1 8IH      -0.183300
     11 C14         23.6420     6.8970    -0.1750 c3         1 8IH      -0.174400
     12 C16         22.9150     7.9880    -0.9650 c3         1 8IH      -0.051400
     13 C2          28.4300     1.7640    -3.9190 ca         1 8IH       0.120000
     14 C3          28.7620     2.1620    -5.2030 ca         1 8IH      -0.107000
     15 C9          24.1330     5.3330    -2.0950 ca         1 8IH      -0.074000
     16 F1          29.0220     5.8740    -2.4740 f          1 8IH      -0.122333
     17 F2          28.6140     6.5400    -0.4750 f          1 8IH      -0.122333
     18 F3          28.8550     4.4470    -0.8750 f          1 8IH      -0.122333
     19 O1          23.1320     5.3540     1.5590 o          1 8IH      -0.717000
     20 O2          21.5980     5.6600    -0.0330 o          1 8IH      -0.717000
     21 CL1         28.7180     3.9260    -7.2300 cl         1 8IH      -0.210500
     22 CL2         28.9500     0.2100    -3.3660 cl         1 8IH      -0.210500
     23 H1          27.2340     5.1970    -5.1680 ha         1 8IH       0.143500
     24 H2          24.6310     3.9900    -3.6820 ha         1 8IH       0.107000
     25 H3          23.3080     9.8320    -2.0390 hc         1 8IH       0.016367
     26 H4          24.4390     9.5180    -0.7260 hc         1 8IH       0.016367
     27 H5          24.5680     8.6190    -2.2340 hc         1 8IH       0.016367
     28 H6          27.4280     2.2290    -2.0800 ha         1 8IH       0.143500
     29 H7          26.3370     6.8080    -0.0330 ha         1 8IH       0.128000
     30 H8          24.2350     7.3850     0.6050 hc         1 8IH       0.044700
     31 H9          22.1850     8.4660    -0.3070 hc         1 8IH       0.044700
     32 H10         22.3410     7.5390    -1.7790 hc         1 8IH       0.044700
     33 H11         29.3420     1.5230    -5.8540 ha         1 8IH       0.134000
     34 H12         23.0700     5.2680    -2.2910 ha         1 8IH       0.147000
     35 C13         28.3320     5.5820    -1.3630 c3         1 8IH       0.353300
     36 C17         23.8590     9.0460    -1.5220 c3         1 8IH      -0.093100
@<TRIPOS>BOND
     1     1     2 ar  
     2     1    14 ar  
     3     1    21 1   
     4     2     3 ar  
     5     2    23 1   
     6     3     4 1   
     7     3     8 ar  
     8     4     5 ar  
     9     4    10 ar  
    10     5    15 ar  
    11     5    24 1   
    12     6     9 ar  
    13     6    11 1   
    14     6    15 ar  
    15     7    11 1   
    16     7    19 1   
    17     7    20 1   
    18     8    13 ar  
    19     8    28 1   
    20     9    10 ar  
    21     9    29 1   
    22    10    35 1   
    23    11    12 1   
    24    11    30 1   
    25    12    31 1   
    26    12    32 1   
    27    12    36 1   
    28    13    14 ar  
    29    13    22 1   
    30    14    33 1   
    31    15    34 1   
    32    16    35 1   
    33    17    35 1   
    34    18    35 1   
    35    25    36 1   
    36    26    36 1   
    37    27    36 1   
@<TRIPOS>SUBSTRUCTURE
     1 8IH         1 TEMP              0 ****  ****    0 ROOT
