@<TRIPOS>MOLECULE
8II
   43    45     1     0     0
SMALL
abcg2


@<TRIPOS>ATOM
      1 C4          58.6370    36.8970    41.9260 ca         1 8II      -0.138000
      2 C14         60.2390    31.1620    44.2270 ca         1 8II      -0.196000
      3 C5          58.8450    36.8300    40.5550 ca         1 8II      -0.071000
      4 C6          59.5750    35.8000    39.9940 ca         1 8II      -0.172000
      5 C11         61.2440    30.5310    43.5170 cp         1 8II      -0.083500
      6 C7          61.3630    32.6230    40.5740 ca         1 8II       0.386900
      7 C8          61.5820    31.0030    42.1540 cp         1 8II       0.221500
      8 C9          62.5450    30.7900    40.0130 ca         1 8II       0.148900
      9 C10         62.3320    30.2410    41.2700 ca         1 8II      -0.254000
     10 C12         61.4930    29.0530    45.3630 ca         1 8II       0.385900
     11 C13         61.9010    29.4440    44.1010 ca         1 8II      -0.216000
     12 N2          61.1060    32.1950    41.7990 nb         1 8II      -0.238000
     13 C3          59.1900    35.9000    42.7080 ca         1 8II       0.143000
     14 N3          62.0740    31.9660    39.6490 nb         1 8II      -0.237000
     15 C1          60.1290    34.7970    40.7990 ca         1 8II       0.334000
     16 C2          59.9280    34.8510    42.1800 ca         1 8II      -0.137000
     17 CL1         58.9680    35.9650    44.4290 cl         1 8II      -0.208000
     18 N4          60.5290    29.6400    46.0560 nb         1 8II      -0.749000
     19 C15         59.9060    30.6900    45.5110 ca         1 8II       0.618900
     20 N5          58.9550    31.2790    46.2710 nu         1 8II      -0.939100
     21 C16         58.1040    32.3620    45.8460 c3         1 8II       0.232800
     22 C17         56.9760    31.9350    44.9060 c3         1 8II      -0.108400
     23 C18         56.1900    33.1090    44.3590 c3         1 8II       0.163600
     24 O1          55.5780    33.7980    45.4290 oh         1 8II      -0.666000
     25 H1          58.0650    37.7020    42.3670 ha         1 8II       0.131000
     26 H3          58.4260    37.5950    39.9140 ha         1 8II       0.119000
     27 H4          59.7210    35.7690    38.9210 ha         1 8II       0.117000
     28 H5          63.1200    30.2480    39.2700 h4         1 8II       0.025100
     29 H6          62.7220    29.2660    41.5130 ha         1 8II       0.141000
     30 H7          61.9780    28.2100    45.8440 h4         1 8II       0.015100
     31 H8          62.7050    28.9150    43.6110 ha         1 8II       0.123000
     32 H10         60.3430    34.0990    42.8300 ha         1 8II       0.162000
     33 H11         58.7300    30.8080    47.1320 hn         1 8II       0.501000
     34 H12         58.7110    33.1380    45.3710 h1         1 8II       0.060200
     35 H13         57.6900    32.8150    46.7450 h1         1 8II       0.060200
     36 H14         56.3090    31.2400    45.4240 hc         1 8II       0.054200
     37 H15         57.3890    31.3890    44.0540 hc         1 8II       0.054200
     38 H16         56.8700    33.7630    43.7980 h1         1 8II       0.023700
     39 H17         55.4440    32.7390    43.6430 h1         1 8II       0.023700
     40 H18         55.1800    34.6020    45.0820 ho         1 8II       0.444000
     41 N1          60.8790    33.8260    40.1520 nu         1 8II      -0.931900
     42 H2          59.7140    31.9970    43.7880 ha         1 8II       0.143000
     43 H9          61.0820    34.0120    39.1810 hn         1 8II       0.513000
@<TRIPOS>BOND
     1     1     3 ar  
     2     1    13 ar  
     3     1    25 1   
     4     2     5 ar  
     5     2    19 ar  
     6     2    42 1   
     7     3     4 ar  
     8     3    26 1   
     9     4    15 ar  
    10     4    27 1   
    11     5     7 1   
    12     5    11 ar  
    13     6    12 ar  
    14     6    14 ar  
    15     6    41 1   
    16     7     9 ar  
    17     7    12 ar  
    18     8     9 ar  
    19     8    14 ar  
    20     8    28 1   
    21     9    29 1   
    22    10    11 ar  
    23    10    18 ar  
    24    10    30 1   
    25    11    31 1   
    26    13    16 ar  
    27    13    17 1   
    28    15    16 ar  
    29    15    41 1   
    30    16    32 1   
    31    18    19 ar  
    32    19    20 1   
    33    20    21 1   
    34    20    33 1   
    35    21    22 1   
    36    21    34 1   
    37    21    35 1   
    38    22    23 1   
    39    22    36 1   
    40    22    37 1   
    41    23    24 1   
    42    23    38 1   
    43    23    39 1   
    44    24    40 1   
    45    41    43 1   
@<TRIPOS>SUBSTRUCTURE
     1 8II         1 TEMP              0 ****  ****    0 ROOT
