@<TRIPOS>MOLECULE
8II
   43    45     1     0     0
SMALL
No Charge or Current Charge


@<TRIPOS>ATOM
      1 C4          58.3520    36.6720    41.7200 ca         1 8II      -0.138000
      2 C14         60.3160    31.1840    44.2430 ca         1 8II      -0.196000
      3 C5          58.4590    36.4950    40.3300 ca         1 8II      -0.071000
      4 C6          59.3840    35.5700    39.8120 ca         1 8II      -0.172000
      5 C11         61.1830    30.4410    43.4010 cp         1 8II      -0.083500
      6 C7          61.6580    32.7080    40.5500 ca         1 8II       0.386900
      7 C8          61.7130    31.0020    42.1070 cp         1 8II       0.221500
      8 C9          63.1200    31.0030    40.1340 ca         1 8II       0.148900
      9 C10         62.7120    30.3730    41.3220 ca         1 8II      -0.254000
     10 C12         60.9680    28.6690    45.0860 ca         1 8II       0.385900
     11 C13         61.4990    29.1390    43.8710 ca         1 8II      -0.216000
     12 N2          61.1940    32.1740    41.6920 nb         1 8II      -0.238000
     13 C3          59.1760    35.9320    42.5820 ca         1 8II       0.143000
     14 N3          62.5880    32.1760    39.7420 nb         1 8II      -0.237000
     15 C1          60.1970    34.8140    40.6730 ca         1 8II       0.334000
     16 C2          60.0980    35.0130    42.0620 ca         1 8II      -0.137000
     17 Cl1         59.0590    36.1630    44.3210 cl         1 8II      -0.208000
     18 N4          60.1410    29.3990    45.8650 nb         1 8II      -0.749000
     19 C15         59.8330    30.6180    45.4310 ca         1 8II       0.618900
     20 N5          58.9980    31.2550    46.3040 nu         1 8II      -0.939100
     21 C16         58.1730    32.4490    46.0520 c3         1 8II       0.232800
     22 C17         57.0510    32.1450    45.0360 c3         1 8II      -0.108400
     23 C18         56.1890    33.3730    44.6870 c3         1 8II       0.163600
     24 O1          55.4920    33.8340    45.8490 oh         1 8II      -0.666000
     25 H1          57.6390    37.3840    42.1270 ha         1 8II       0.131000
     26 H3          57.8260    37.0710    39.6570 ha         1 8II       0.119000
     27 H4          59.4570    35.4350    38.7370 ha         1 8II       0.117000
     28 H5          63.8820    30.5650    39.4910 h4         1 8II       0.025100
     29 H6          63.1660    29.4340    41.6170 ha         1 8II       0.141000
     30 H7          61.2120    27.6690    45.4450 h4         1 8II       0.015100
     31 H8          62.1460    28.4770    43.3060 ha         1 8II       0.123000
     32 H10         60.7440    34.4740    42.7450 ha         1 8II       0.162000
     33 H11         58.7420    30.6550    47.0840 hn         1 8II       0.501000
     34 H12         58.7970    33.2730    45.6790 h1         1 8II       0.060200
     35 H13         57.7170    32.7860    46.9940 h1         1 8II       0.060200
     36 H14         56.4060    31.3500    45.4290 hc         1 8II       0.054200
     37 H15         57.4930    31.7650    44.1070 hc         1 8II       0.054200
     38 H16         56.8320    34.1670    44.2830 h1         1 8II       0.023700
     39 H17         55.4730    33.0940    43.9030 h1         1 8II       0.023700
     40 H18         54.9390    34.5970    45.5670 ho         1 8II       0.444000
     41 N1          61.1000    33.9040    40.1130 nu         1 8II      -0.931900
     42 H2          60.0170    32.1930    43.9830 ha         1 8II       0.143000
     43 H9          61.3280    34.1020    39.1390 hn         1 8II       0.513000
@<TRIPOS>BOND
     1     1     3 ar  
     2     1    13 ar  
     3     1    25 1   
     4     2     5 ar  
     5     2    19 ar  
     6     2    42 1   
     7     3     4 ar  
     8     3    26 1   
     9     4    15 ar  
    10     4    27 1   
    11     5     7 1   
    12     5    11 ar  
    13     6    12 ar  
    14     6    14 ar  
    15     6    41 1   
    16     7     9 ar  
    17     7    12 ar  
    18     8     9 ar  
    19     8    14 ar  
    20     8    28 1   
    21     9    29 1   
    22    10    11 ar  
    23    10    18 ar  
    24    10    30 1   
    25    11    31 1   
    26    13    16 ar  
    27    13    17 1   
    28    15    16 ar  
    29    15    41 1   
    30    16    32 1   
    31    18    19 ar  
    32    19    20 1   
    33    20    21 1   
    34    20    33 1   
    35    21    22 1   
    36    21    34 1   
    37    21    35 1   
    38    22    23 1   
    39    22    36 1   
    40    22    37 1   
    41    23    24 1   
    42    23    38 1   
    43    23    39 1   
    44    24    40 1   
    45    41    43 1   
@<TRIPOS>SUBSTRUCTURE
     1 8II         1 TEMP              0 ****  ****    0 ROOT
