@<TRIPOS>MOLECULE
8IK
   29    30     1     0     0
SMALL
abcg2


@<TRIPOS>ATOM
      1 C10         61.5490    -2.3910    21.5410 ca         1 8IK      -0.165000
      2 C11         61.0330    -1.1100    21.2520 ca         1 8IK      -0.069300
      3 C13         61.4090    -0.4700    20.0850 ca         1 8IK      -0.152000
      4 C14         62.6820    -5.7240    18.4100 c          1 8IK       0.695000
      5 C2          63.8240    -5.1310    17.5460 c3         1 8IK       0.018500
      6 C4          63.7190    -2.7400    18.4400 cc         1 8IK      -0.079400
      7 C5          63.6880    -1.6790    17.5790 cd         1 8IK      -0.194100
      8 C7          62.2990    -1.1190    19.2270 ca         1 8IK      -0.050200
      9 C9          62.4270    -3.0340    20.6920 ca         1 8IK      -0.014000
     10 C3          64.5340    -3.9850    18.2870 c3         1 8IK       0.014800
     11 C8          62.8230    -2.3990    19.5090 ca         1 8IK      -0.082800
     12 C12         60.0710    -0.4630    22.2080 c3         1 8IK      -0.035800
     13 N1          63.4590    -4.6870    16.2100 n8         1 8IK      -1.004200
     14 N6          62.8370    -0.7110    18.0440 na         1 8IK      -0.240700
     15 H101        61.2430    -2.8810    22.4580 ha         1 8IK       0.099000
     16 H131        61.0260     0.5160    19.8460 ha         1 8IK       0.091000
     17 H021        64.5730    -5.9240    17.4290 h1         1 8IK       0.037700
     18 H051        64.2290    -1.5340    16.6570 h4         1 8IK       0.204000
     19 H091        62.7960    -4.0240    20.9280 ha         1 8IK       0.154000
     20 H031        64.8490    -4.3460    19.2680 hc         1 8IK       0.034700
     21 H032        65.4480    -3.7430    17.7370 hc         1 8IK       0.034700
     22 H121        59.1150    -0.9890    22.2280 hc         1 8IK       0.027033
     23 H122        60.4580    -0.4690    23.2290 hc         1 8IK       0.027033
     24 H123        59.8700     0.5730    21.9350 hc         1 8IK       0.027033
     25 H1          63.0260    -5.4600    15.7190 hn         1 8IK       0.383000
     26 H012        62.7190    -3.9990    16.2990 hn         1 8IK       0.383000
     27 H061        62.6580     0.1680    17.5900 hn         1 8IK       0.329000
     28 O15         61.5150    -5.6170    17.9860 o          1 8IK      -0.736000
     29 O16         63.0440    -6.2690    19.4760 o          1 8IK      -0.736000
@<TRIPOS>BOND
     1     1     2 ar  
     2     1     9 ar  
     3     1    15 1   
     4     2     3 ar  
     5     2    12 1   
     6     3     8 ar  
     7     3    16 1   
     8     4     5 1   
     9     4    28 1   
    10     4    29 1   
    11     5    10 1   
    12     5    13 1   
    13     5    17 1   
    14     6     7 2   
    15     6    10 1   
    16     6    11 1   
    17     7    14 1   
    18     7    18 1   
    19     8    11 ar  
    20     8    14 1   
    21     9    11 ar  
    22     9    19 1   
    23    10    20 1   
    24    10    21 1   
    25    12    22 1   
    26    12    23 1   
    27    12    24 1   
    28    13    25 1   
    29    13    26 1   
    30    14    27 1   
@<TRIPOS>SUBSTRUCTURE
     1 8IK         1 TEMP              0 ****  ****    0 ROOT
