@<TRIPOS>MOLECULE
8IK
   29    30     1     0     0
SMALL
No Charge or Current Charge


@<TRIPOS>ATOM
      1 C10         61.6070    -2.4020    21.5820 ca         1 8IK      -0.165000
      2 C11         61.0430    -1.1370    21.2840 ca         1 8IK      -0.069300
      3 C13         61.3890    -0.4820    20.0800 ca         1 8IK      -0.152000
      4 C14         62.5790    -5.6360    18.4370 c          1 8IK       0.695000
      5 C2          63.8300    -5.1410    17.5980 c3         1 8IK       0.018500
      6 C4          63.7090    -2.6950    18.4240 cc         1 8IK      -0.079400
      7 C5          63.6550    -1.6340    17.5230 cd         1 8IK      -0.194100
      8 C7          62.2890    -1.1140    19.2110 ca         1 8IK      -0.050200
      9 C9          62.5120    -3.0150    20.6890 ca         1 8IK      -0.014000
     10 C3          64.5400    -3.9520    18.3030 c3         1 8IK       0.014800
     11 C8          62.8280    -2.3350    19.5020 ca         1 8IK      -0.082800
     12 C12         60.0670    -0.4880    22.2530 c3         1 8IK      -0.035800
     13 N1          63.5950    -4.8390    16.1340 n8         1 8IK      -1.004200
     14 N6          62.7640    -0.6430    18.0020 na         1 8IK      -0.240700
     15 H101        61.3440    -2.9100    22.5070 ha         1 8IK       0.099000
     16 H131        60.9690     0.4890    19.8320 ha         1 8IK       0.091000
     17 H021        64.5380    -5.9800    17.6170 h1         1 8IK       0.037700
     18 H051        64.1840    -1.5190    16.5800 h4         1 8IK       0.204000
     19 H091        62.9510    -3.9830    20.9180 ha         1 8IK       0.154000
     20 H031        64.8570    -4.2750    19.3020 hc         1 8IK       0.034700
     21 H032        65.4670    -3.7210    17.7630 hc         1 8IK       0.034700
     22 H121        59.0410    -0.8140    22.0500 hc         1 8IK       0.027033
     23 H122        60.3030    -0.7510    23.2920 hc         1 8IK       0.027033
     24 H123        60.0940     0.6050    22.1760 hc         1 8IK       0.027033
     25 H1          63.1160    -5.6410    15.7080 hn         1 8IK       0.383000
     26 H012        62.8860    -4.0970    16.0810 hn         1 8IK       0.383000
     27 H061        62.5260     0.2370    17.5540 hn         1 8IK       0.329000
     28 O15         61.4540    -5.4240    18.0000 o          1 8IK      -0.736000
     29 O16         62.7870    -6.3440    19.4140 o          1 8IK      -0.736000
@<TRIPOS>BOND
     1     1     2 ar  
     2     1     9 ar  
     3     1    15 1   
     4     2     3 ar  
     5     2    12 1   
     6     3     8 ar  
     7     3    16 1   
     8     4     5 1   
     9     4    28 1   
    10     4    29 1   
    11     5    10 1   
    12     5    13 1   
    13     5    17 1   
    14     6     7 2   
    15     6    10 1   
    16     6    11 1   
    17     7    14 1   
    18     7    18 1   
    19     8    11 ar  
    20     8    14 1   
    21     9    11 ar  
    22     9    19 1   
    23    10    20 1   
    24    10    21 1   
    25    12    22 1   
    26    12    23 1   
    27    12    24 1   
    28    13    25 1   
    29    13    26 1   
    30    14    27 1   
@<TRIPOS>SUBSTRUCTURE
     1 8IK         1 TEMP              0 ****  ****    0 ROOT
