@<TRIPOS>MOLECULE
8IL
   39    41     1     0     0
SMALL
No Charge or Current Charge


@<TRIPOS>ATOM
      1 C10         10.1260     0.6920   -20.9310 ca         1 8IL      -0.021000
      2 C15          5.0500    -2.2620   -21.3640 c3         1 8IL      -0.023200
      3 C17          4.8220    -4.7920   -21.7920 cc         1 8IL      -0.167100
      4 C20          4.7080    -4.1470   -19.5720 ca         1 8IL      -0.095800
      5 C21          4.6790    -3.4480   -18.3570 ca         1 8IL      -0.047000
      6 C22          4.5070    -4.2010   -17.1740 ca         1 8IL      -0.151000
      7 C24          4.4040    -6.2790   -18.4760 ca         1 8IL      -0.139000
      8 C02          6.2190     2.5610   -21.2410 c          1 8IL       0.726600
      9 C03          7.5620     1.8760   -21.1210 ca         1 8IL      -0.242600
     10 C04          8.7120     2.6650   -20.8820 ca         1 8IL       0.009000
     11 C05          9.9910     2.0830   -20.7750 ca         1 8IL      -0.312300
     12 C06         11.2170     2.9670   -20.5240 c3         1 8IL       0.362300
     13 C11          8.9940    -0.0980   -21.1680 ca         1 8IL      -0.262000
     14 C12          7.7160     0.4790   -21.2550 ca         1 8IL       0.401000
     15 C14          6.4710    -1.7390   -21.0680 c3         1 8IL       0.242800
     16 C16          4.8660    -3.6970   -20.9360 cd         1 8IL      -0.119400
     17 C19          4.5760    -5.5050   -19.6310 ca         1 8IL      -0.049200
     18 C23          4.3700    -5.6100   -17.2330 ca         1 8IL      -0.096000
     19 F07         11.6690     3.5160   -21.6730 f          1 8IL      -0.134333
     20 F08         10.9430     3.9880   -19.6790 f          1 8IL      -0.134333
     21 F09         12.2500     2.2840   -19.9790 f          1 8IL      -0.134333
     22 N13          6.6180    -0.3390   -21.4880 nu         1 8IL      -0.987200
     23 N18          4.6410    -5.9120   -20.9510 na         1 8IL      -0.231700
     24 O01          5.1940     1.9080   -21.0940 o          1 8IL      -0.720500
     25 O25          6.2040     3.7590   -21.4790 o          1 8IL      -0.720500
     26 H1          11.1030     0.2160   -20.8730 ha         1 8IL       0.093000
     27 H2           4.8500    -2.1640   -22.4380 hc         1 8IL       0.058700
     28 H3           4.3170    -1.6280   -20.8500 hc         1 8IL       0.058700
     29 H6           4.4790    -3.6950   -16.2120 ha         1 8IL       0.108000
     30 H7           4.2990    -7.3600   -18.5330 ha         1 8IL       0.104000
     31 H8           8.6110     3.7450   -20.7780 ha         1 8IL       0.142000
     32 H9           9.1230    -1.1680   -21.2880 ha         1 8IL       0.094000
     33 H10          7.1990    -2.3700   -21.5940 h1         1 8IL       0.024700
     34 H11          6.6660    -1.8230   -19.9900 h1         1 8IL       0.024700
     35 H12          4.2380    -6.1800   -16.3160 ha         1 8IL       0.101000
     36 H13          5.7580     0.2290   -21.4370 hn         1 8IL       0.561000
     37 H14          4.5680    -6.8760   -21.2640 hn         1 8IL       0.342000
     38 H4           4.9030    -4.8620   -22.8740 h4         1 8IL       0.211000
     39 H5           4.7840    -2.3660   -18.3240 ha         1 8IL       0.126000
@<TRIPOS>BOND
     1     1    11 ar  
     2     1    13 ar  
     3     1    26 1   
     4     2    15 1   
     5     2    16 1   
     6     2    27 1   
     7     2    28 1   
     8     3    16 2   
     9     3    23 1   
    10     3    38 1   
    11     4     5 ar  
    12     4    16 1   
    13     4    17 ar  
    14     5     6 ar  
    15     5    39 1   
    16     6    18 ar  
    17     6    29 1   
    18     7    17 ar  
    19     7    18 ar  
    20     7    30 1   
    21     8     9 1   
    22     8    24 1   
    23     8    25 1   
    24     9    10 ar  
    25     9    14 ar  
    26    10    11 ar  
    27    10    31 1   
    28    11    12 1   
    29    12    19 1   
    30    12    20 1   
    31    12    21 1   
    32    13    14 ar  
    33    13    32 1   
    34    14    22 1   
    35    15    22 1   
    36    15    33 1   
    37    15    34 1   
    38    17    23 1   
    39    18    35 1   
    40    22    36 1   
    41    23    37 1   
@<TRIPOS>SUBSTRUCTURE
     1 8IL         1 TEMP              0 ****  ****    0 ROOT
