@<TRIPOS>MOLECULE
8IL
   39    41     1     0     0
SMALL
abcg2


@<TRIPOS>ATOM
      1 C10         10.0110     0.6860   -20.6270 ca         1 8IL      -0.021000
      2 C15          5.0290    -2.1420   -21.2020 c3         1 8IL      -0.023200
      3 C17          4.8890    -4.6440   -21.7300 cc         1 8IL      -0.167100
      4 C20          4.7240    -4.1500   -19.5550 ca         1 8IL      -0.095800
      5 C21          4.6370    -3.6020   -18.2700 ca         1 8IL      -0.047000
      6 C22          4.4740    -4.4480   -17.1910 ca         1 8IL      -0.151000
      7 C24          4.4820    -6.4100   -18.6240 ca         1 8IL      -0.139000
      8 C02          6.2870     2.7140   -21.4780 c          1 8IL       0.726600
      9 C03          7.5720     1.9490   -21.1930 ca         1 8IL      -0.242600
     10 C04          8.7540     2.6660   -21.0990 ca         1 8IL       0.009000
     11 C05          9.9760     2.0650   -20.8230 ca         1 8IL      -0.312300
     12 C06         11.2310     2.8570   -20.8220 c3         1 8IL       0.362300
     13 C11          8.8580    -0.0610   -20.7120 ca         1 8IL      -0.262000
     14 C12          7.6150     0.5360   -21.0150 ca         1 8IL       0.401000
     15 C14          6.4300    -1.6220   -20.8890 c3         1 8IL       0.242800
     16 C16          4.8780    -3.5870   -20.8650 cd         1 8IL      -0.119400
     17 C19          4.6460    -5.5520   -19.7110 ca         1 8IL      -0.049200
     18 C23          4.3990    -5.8400   -17.3680 ca         1 8IL      -0.096000
     19 F07         11.8370     2.8600   -22.0280 f          1 8IL      -0.134333
     20 F08         11.0320     4.1470   -20.5090 f          1 8IL      -0.134333
     21 F09         12.1420     2.3830   -19.9550 f          1 8IL      -0.134333
     22 N13          6.5000    -0.2080   -21.1380 nu         1 8IL      -0.987200
     23 N18          4.7510    -5.8190   -21.0440 na         1 8IL      -0.231700
     24 O01          5.2240     2.0470   -21.5560 o          1 8IL      -0.720500
     25 O25          6.3770     3.9450   -21.6120 o          1 8IL      -0.720500
     26 H1          10.9410     0.1780   -20.4020 ha         1 8IL       0.093000
     27 H2           4.8160    -1.9800   -22.2610 hc         1 8IL       0.058700
     28 H3           4.2960    -1.5510   -20.6420 hc         1 8IL       0.058700
     29 H6           4.4040    -4.0370   -16.1920 ha         1 8IL       0.108000
     30 H7           4.4220    -7.4830   -18.7570 ha         1 8IL       0.104000
     31 H8           8.6920     3.7360   -21.2490 ha         1 8IL       0.142000
     32 H9           8.9200    -1.1290   -20.5480 ha         1 8IL       0.094000
     33 H10          7.1510    -2.1630   -21.5110 h1         1 8IL       0.024700
     34 H11          6.6850    -1.8540   -19.8460 h1         1 8IL       0.024700
     35 H12          4.2710    -6.4780   -16.5030 ha         1 8IL       0.101000
     36 H13          5.6600     0.3480   -21.2970 hn         1 8IL       0.561000
     37 H14          4.7200    -6.7340   -21.4630 hn         1 8IL       0.342000
     38 H4           4.9840    -4.6450   -22.8050 h4         1 8IL       0.211000
     39 H5           4.6940    -2.5300   -18.1240 ha         1 8IL       0.126000
@<TRIPOS>BOND
     1     1    11 ar  
     2     1    13 ar  
     3     1    26 1   
     4     2    15 1   
     5     2    16 1   
     6     2    27 1   
     7     2    28 1   
     8     3    16 2   
     9     3    23 1   
    10     3    38 1   
    11     4     5 ar  
    12     4    16 1   
    13     4    17 ar  
    14     5     6 ar  
    15     5    39 1   
    16     6    18 ar  
    17     6    29 1   
    18     7    17 ar  
    19     7    18 ar  
    20     7    30 1   
    21     8     9 1   
    22     8    24 1   
    23     8    25 1   
    24     9    10 ar  
    25     9    14 ar  
    26    10    11 ar  
    27    10    31 1   
    28    11    12 1   
    29    12    19 1   
    30    12    20 1   
    31    12    21 1   
    32    13    14 ar  
    33    13    32 1   
    34    14    22 1   
    35    15    22 1   
    36    15    33 1   
    37    15    34 1   
    38    17    23 1   
    39    18    35 1   
    40    22    36 1   
    41    23    37 1   
@<TRIPOS>SUBSTRUCTURE
     1 8IL         1 TEMP              0 ****  ****    0 ROOT
