@<TRIPOS>MOLECULE
8IP
   37    39     1     0     0
SMALL
No Charge or Current Charge


@<TRIPOS>ATOM
      1 N1           3.5410     2.4700     5.9240 nv         1 8IP      -1.037900
      2 C2           3.1000     1.4390     6.6850 ca         1 8IP       0.539900
      3 N3           3.2570     1.7480     7.9740 nb         1 8IP      -0.718000
      4 C4           2.8400     0.8320     8.8770 ca         1 8IP       0.339900
      5 C5           2.2570    -0.3960     8.5110 ca         1 8IP      -0.173000
      6 C6           2.0930    -0.7140     7.1490 ca         1 8IP      -0.117000
      7 C7           2.5230     0.2170     6.1830 ca         1 8IP       0.189000
      8 N8           2.3890    -0.0710     4.7970 nu         1 8IP      -0.927200
      9 C9           1.6920    -1.2080     4.1810 c3         1 8IP       0.238100
     10 C10          1.7720    -1.1050     2.6650 ca         1 8IP      -0.102300
     11 C11          0.7720    -0.4240     1.9470 ca         1 8IP      -0.083000
     12 C12          0.8460    -0.3360     0.5480 ca         1 8IP      -0.114000
     13 C13          1.9190    -0.9260    -0.1400 ca         1 8IP      -0.092000
     14 C14          2.9440    -1.6150     0.5560 cp         1 8IP      -0.035000
     15 C15          2.8470    -1.6920     1.9690 ca         1 8IP      -0.091000
     16 C16          4.0890    -2.2440    -0.1780 cp         1 8IP      -0.086000
     17 C17          5.3830    -2.3260     0.3950 ca         1 8IP      -0.066000
     18 C18          6.4190    -2.9270    -0.3390 ca         1 8IP      -0.163000
     19 C19          6.1510    -3.4320    -1.6210 ca         1 8IP       0.336900
     20 N20          4.9270    -3.3670    -2.1920 nb         1 8IP      -0.665000
     21 C21          3.9300    -2.7860    -1.4820 ca         1 8IP       0.345900
     22 HN11         3.7320     3.3190     6.4410 hn         1 8IP       0.457000
     23 HN12         3.1130     2.5920     5.0140 hn         1 8IP       0.457000
     24 H4           2.9730     1.0900     9.9270 h4         1 8IP       0.018100
     25 H5           1.9390    -1.0920     9.2830 ha         1 8IP       0.122000
     26 H6           1.6480    -1.6630     6.8630 ha         1 8IP       0.116000
     27 HN8          2.8500     0.5740     4.1530 hn         1 8IP       0.462000
     28 H91          0.6380    -1.2180     4.4930 h1         1 8IP       0.044200
     29 H92          2.1460    -2.1540     4.5080 h1         1 8IP       0.044200
     30 H11         -0.0620     0.0370     2.4730 ha         1 8IP       0.124000
     31 H12          0.0720     0.1940    -0.0040 ha         1 8IP       0.117000
     32 H13          1.9610    -0.8320    -1.2230 ha         1 8IP       0.118000
     33 H15          3.6080    -2.2250     2.5330 ha         1 8IP       0.114000
     34 H17          5.5850    -1.9200     1.3830 ha         1 8IP       0.120000
     35 H18          7.4210    -3.0000     0.0750 ha         1 8IP       0.125000
     36 H19          6.9390    -3.9010    -2.2090 h4         1 8IP       0.020100
     37 H21          2.9580    -2.7650    -1.9720 h4         1 8IP       0.021100
@<TRIPOS>BOND
     1     1     2 1   
     2     1    22 1   
     3     1    23 1   
     4     2     3 ar  
     5     2     7 ar  
     6     3     4 ar  
     7     4     5 ar  
     8     4    24 1   
     9     5     6 ar  
    10     5    25 1   
    11     6     7 ar  
    12     6    26 1   
    13     7     8 1   
    14     8     9 1   
    15     8    27 1   
    16     9    10 1   
    17     9    28 1   
    18     9    29 1   
    19    10    11 ar  
    20    10    15 ar  
    21    11    12 ar  
    22    11    30 1   
    23    12    13 ar  
    24    12    31 1   
    25    13    14 ar  
    26    13    32 1   
    27    14    15 ar  
    28    14    16 1   
    29    15    33 1   
    30    16    17 ar  
    31    16    21 ar  
    32    17    18 ar  
    33    17    34 1   
    34    18    19 ar  
    35    18    35 1   
    36    19    20 ar  
    37    19    36 1   
    38    20    21 ar  
    39    21    37 1   
@<TRIPOS>SUBSTRUCTURE
     1 8IP         1 TEMP              0 ****  ****    0 ROOT
