@<TRIPOS>MOLECULE
8IP
   37    39     1     0     0
SMALL
bcc


@<TRIPOS>ATOM
      1 N1           2.9090     2.6540     5.9580 nv         1 8IP      -0.927500
      2 C2           2.6440     1.5930     6.7950 ca         1 8IP       0.605200
      3 N3           2.6650     1.8020     8.0970 nb         1 8IP      -0.718000
      4 C4           2.4380     0.7760     8.9240 ca         1 8IP       0.405200
      5 C5           2.1690    -0.4960     8.4780 ca         1 8IP      -0.256300
      6 C6           2.1660    -0.7310     7.1000 ca         1 8IP      -0.135000
      7 C7           2.4130     0.3110     6.2260 ca         1 8IP      -0.014700
      8 N8           2.4170     0.2000     4.8420 nu         1 8IP      -0.733600
      9 C9           2.2400    -1.1020     4.2390 c3         1 8IP       0.238100
     10 C10          2.2080    -0.9820     2.7390 ca         1 8IP      -0.102300
     11 C11          1.2530    -0.1810     2.1140 ca         1 8IP      -0.101000
     12 C12          1.2190    -0.0900     0.7320 ca         1 8IP      -0.132000
     13 C13          2.1340    -0.7910    -0.0420 ca         1 8IP      -0.110000
     14 C14          3.0970    -1.5960     0.5650 cp         1 8IP      -0.035000
     15 C15          3.1210    -1.6760     1.9590 ca         1 8IP      -0.109000
     16 C16          4.0740    -2.3460    -0.2440 cp         1 8IP      -0.151300
     17 C17          5.3990    -2.5050     0.1570 ca         1 8IP      -0.084000
     18 C18          6.2710    -3.2210    -0.6450 ca         1 8IP      -0.246300
     19 C19          5.7930    -3.7600    -1.8300 ca         1 8IP       0.402200
     20 N20          4.5330    -3.6240    -2.2280 nb         1 8IP      -0.665000
     21 C21          3.7050    -2.9390    -1.4520 ca         1 8IP       0.411200
     22 HN11         2.8850     3.5500     6.4210 hn         1 8IP       0.401800
     23 HN12         2.3840     2.6650     5.0960 hn         1 8IP       0.401800
     24 H4           2.4650     1.0010     9.9840 h4         1 8IP       0.018100
     25 H5           1.9780    -1.3000     9.1760 ha         1 8IP       0.140000
     26 H6           1.9800    -1.7310     6.7300 ha         1 8IP       0.134000
     27 HN8          3.1680     0.7240     4.4100 hn         1 8IP       0.406800
     28 H91          1.2920    -1.5200     4.5880 h1         1 8IP       0.044200
     29 H92          3.0220    -1.8150     4.5330 h1         1 8IP       0.044200
     30 H11          0.5360     0.3680     2.7120 ha         1 8IP       0.142000
     31 H12          0.4780     0.5340     0.2490 ha         1 8IP       0.135000
     32 H13          2.1080    -0.6920    -1.1190 ha         1 8IP       0.136000
     33 H15          3.8570    -2.3060     2.4460 ha         1 8IP       0.132000
     34 H17          5.7510    -2.0570     1.0780 ha         1 8IP       0.138000
     35 H18          7.3070    -3.3550    -0.3630 ha         1 8IP       0.143000
     36 H19          6.4520    -4.3220    -2.4820 h4         1 8IP       0.020100
     37 H21          2.6780    -2.8670    -1.7960 h4         1 8IP       0.021100
@<TRIPOS>BOND
     1     1     2 1   
     2     1    22 1   
     3     1    23 1   
     4     2     3 ar  
     5     2     7 ar  
     6     3     4 ar  
     7     4     5 ar  
     8     4    24 1   
     9     5     6 ar  
    10     5    25 1   
    11     6     7 ar  
    12     6    26 1   
    13     7     8 1   
    14     8     9 1   
    15     8    27 1   
    16     9    10 1   
    17     9    28 1   
    18     9    29 1   
    19    10    11 ar  
    20    10    15 ar  
    21    11    12 ar  
    22    11    30 1   
    23    12    13 ar  
    24    12    31 1   
    25    13    14 ar  
    26    13    32 1   
    27    14    15 ar  
    28    14    16 1   
    29    15    33 1   
    30    16    17 ar  
    31    16    21 ar  
    32    17    18 ar  
    33    17    34 1   
    34    18    19 ar  
    35    18    35 1   
    36    19    20 ar  
    37    19    36 1   
    38    20    21 ar  
    39    21    37 1   
@<TRIPOS>SUBSTRUCTURE
     1 8IP         1 TEMP              0 ****  ****    0 ROOT
