@<TRIPOS>MOLECULE
8IQ
   40    42     1     0     0
SMALL
bcc


@<TRIPOS>ATOM
      1 C13          7.5510     0.7950   -21.2740 ca         1 8IQ       0.243600
      2 C15          6.3950    -1.3770   -21.3020 c3         1 8IQ       0.240800
      3 C17          4.8480    -3.3390   -21.2050 cc         1 8IQ      -0.119400
      4 C20          4.7450    -5.3230   -20.0630 ca         1 8IQ      -0.049200
      5 C21          4.8530    -3.9240   -19.8950 ca         1 8IQ      -0.095800
      6 C22          4.9330    -3.3990   -18.5990 ca         1 8IQ      -0.065000
      7 C24          4.7990    -5.6530   -17.7140 ca         1 8IQ      -0.114000
      8 C02          6.2390     2.9810   -21.7480 c          1 8IQ       0.937200
      9 C03          7.4970     2.2140   -21.3630 ca         1 8IQ      -0.221600
     10 C04          8.6410     2.9460   -21.0680 ca         1 8IQ      -0.045000
     11 C05          9.8160     2.3290   -20.6890 ca         1 8IQ      -0.031900
     12 C07         11.7890     3.3980   -21.3200 c3         1 8IQ       0.842700
     13 C11          9.8820     0.9510   -20.5860 ca         1 8IQ      -0.080000
     14 C12          8.7630     0.1950   -20.8760 ca         1 8IQ      -0.265000
     15 C16          4.9770    -1.8910   -21.5390 c3         1 8IQ      -0.023200
     16 C18          4.7400    -4.3810   -22.0810 cd         1 8IQ      -0.118100
     17 C23          4.9040    -4.2640   -17.5230 ca         1 8IQ      -0.169000
     18 C25          4.7180    -6.2000   -18.9800 ca         1 8IQ      -0.157000
     19 F08         11.2530     4.1730   -22.2690 f          1 8IQ      -0.246300
     20 F09         12.8090     4.0530   -20.7800 f          1 8IQ      -0.246300
     21 F10         12.2730     2.3200   -21.9440 f          1 8IQ      -0.246300
     22 N14          6.4710     0.0340   -21.5670 nu         1 8IQ      -0.792600
     23 N19          4.6770    -5.5670   -21.4030 na         1 8IQ      -0.181400
     24 O01          5.1990     2.3100   -21.9650 o          1 8IQ      -0.824800
     25 O06         10.9320     3.1000   -20.3450 os         1 8IQ      -0.371900
     26 O26          6.3280     4.2180   -21.8160 o          1 8IQ      -0.824800
     27 H1           7.0830    -1.9360   -21.9460 h1         1 8IQ       0.023700
     28 H2           6.6950    -1.5990   -20.2690 h1         1 8IQ       0.023700
     29 H3           5.0150    -2.3300   -18.4420 ha         1 8IQ       0.144000
     30 H4           4.7820    -6.3070   -16.8510 ha         1 8IQ       0.119000
     31 H5           8.5870     4.0260   -21.1230 ha         1 8IQ       0.164000
     32 H6          10.7950     0.4610   -20.2700 ha         1 8IQ       0.117000
     33 H7           8.8350    -0.8810   -20.7960 ha         1 8IQ       0.115000
     34 H8           4.7040    -1.7260   -22.5840 hc         1 8IQ       0.058700
     35 H9           4.2790    -1.3010   -20.9360 hc         1 8IQ       0.058700
     36 H10          4.7000    -4.3630   -23.1600 h4         1 8IQ       0.161000
     37 H11          4.9660    -3.8720   -16.5170 ha         1 8IQ       0.126000
     38 H12          4.6360    -7.2700   -19.1240 ha         1 8IQ       0.121000
     39 H13          5.6320     0.5810   -21.7510 hn         1 8IQ       0.500800
     40 H14          4.5910    -6.4740   -21.8300 hn         1 8IQ       0.291700
@<TRIPOS>BOND
     1     1     9 ar  
     2     1    14 ar  
     3     1    22 1   
     4     2    15 1   
     5     2    22 1   
     6     2    27 1   
     7     2    28 1   
     8     3     5 1   
     9     3    15 1   
    10     3    16 2   
    11     4     5 ar  
    12     4    18 ar  
    13     4    23 1   
    14     5     6 ar  
    15     6    17 ar  
    16     6    29 1   
    17     7    17 ar  
    18     7    18 ar  
    19     7    30 1   
    20     8     9 1   
    21     8    24 1   
    22     8    26 1   
    23     9    10 ar  
    24    10    11 ar  
    25    10    31 1   
    26    11    13 ar  
    27    11    25 1   
    28    12    19 1   
    29    12    20 1   
    30    12    21 1   
    31    12    25 1   
    32    13    14 ar  
    33    13    32 1   
    34    14    33 1   
    35    15    34 1   
    36    15    35 1   
    37    16    23 1   
    38    16    36 1   
    39    17    37 1   
    40    18    38 1   
    41    22    39 1   
    42    23    40 1   
@<TRIPOS>SUBSTRUCTURE
     1 8IQ         1 TEMP              0 ****  ****    0 ROOT
