@<TRIPOS>MOLECULE
8IQ
   40    42     1     0     0
SMALL
No Charge or Current Charge


@<TRIPOS>ATOM
      1 C13          7.4750     0.9250   -21.4880 ca         1 8IQ       0.382000
      2 C15          6.3380    -1.3560   -21.3530 c3         1 8IQ       0.240800
      3 C17          4.8160    -3.3870   -21.2310 cc         1 8IQ      -0.119400
      4 C20          4.7580    -5.3320   -20.0720 ca         1 8IQ      -0.049200
      5 C21          4.8730    -3.9780   -19.9240 ca         1 8IQ      -0.095800
      6 C22          5.0100    -3.3810   -18.6610 ca         1 8IQ      -0.047000
      7 C24          4.9190    -5.6270   -17.6830 ca         1 8IQ      -0.096000
      8 C02          5.9050     2.9400   -21.2150 c          1 8IQ       0.726600
      9 C03          7.2800     2.3060   -21.2540 ca         1 8IQ      -0.221600
     10 C04          8.4180     3.1270   -21.0610 ca         1 8IQ      -0.027000
     11 C05          9.7200     2.6000   -21.1030 ca         1 8IQ      -0.031900
     12 C07         12.1640     3.1000   -20.9130 c3         1 8IQ       0.502000
     13 C11          9.8980     1.2230   -21.3460 ca         1 8IQ      -0.062000
     14 C12          8.7790     0.4000   -21.5380 ca         1 8IQ      -0.247000
     15 C16          4.9180    -1.9210   -21.5640 c3         1 8IQ      -0.023200
     16 C18          4.6620    -4.4460   -22.1220 cd         1 8IQ      -0.168100
     17 C23          5.0330    -4.2250   -17.5310 ca         1 8IQ      -0.151000
     18 C25          4.7780    -6.1940   -18.9680 ca         1 8IQ      -0.139000
     19 F08         12.5420     2.5820   -22.1050 f          1 8IQ      -0.125000
     20 F09         12.9530     4.1740   -20.6850 f          1 8IQ      -0.125000
     21 F10         12.4540     2.1910   -19.9530 f          1 8IQ      -0.125000
     22 N14          6.3930     0.0750   -21.6810 nu         1 8IQ      -0.986200
     23 N19          4.6270    -5.6680   -21.4060 na         1 8IQ      -0.231700
     24 O01          4.9190     2.2350   -21.0480 o          1 8IQ      -0.719500
     25 O06         10.7710     3.4800   -20.9010 os         1 8IQ      -0.395100
     26 O26          5.8280     4.1530   -21.3470 o          1 8IQ      -0.719500
     27 H1           7.0400    -1.9160   -21.9850 h1         1 8IQ       0.023700
     28 H2           6.6330    -1.5050   -20.3050 h1         1 8IQ       0.023700
     29 H3           5.0940    -2.3020   -18.5540 ha         1 8IQ       0.126000
     30 H4           4.9370    -6.2710   -16.8060 ha         1 8IQ       0.101000
     31 H5           8.2990     4.1920   -20.8750 ha         1 8IQ       0.146000
     32 H6          10.8860     0.7730   -21.3920 ha         1 8IQ       0.099000
     33 H7           8.9380    -0.6560   -21.7310 ha         1 8IQ       0.097000
     34 H8           4.6200    -1.7580   -22.6070 hc         1 8IQ       0.058700
     35 H9           4.2100    -1.3580   -20.9430 hc         1 8IQ       0.058700
     36 H10          4.5820    -4.4180   -23.2060 h4         1 8IQ       0.211000
     37 H11          5.1390    -3.7950   -16.5370 ha         1 8IQ       0.108000
     38 H12          4.6870    -7.2700   -19.0950 ha         1 8IQ       0.103000
     39 H13          5.5150     0.5970   -21.5320 hn         1 8IQ       0.556000
     40 H14          4.5250    -6.6020   -21.7930 hn         1 8IQ       0.342000
@<TRIPOS>BOND
     1     1     9 ar  
     2     1    14 ar  
     3     1    22 1   
     4     2    15 1   
     5     2    22 1   
     6     2    27 1   
     7     2    28 1   
     8     3     5 1   
     9     3    15 1   
    10     3    16 2   
    11     4     5 ar  
    12     4    18 ar  
    13     4    23 1   
    14     5     6 ar  
    15     6    17 ar  
    16     6    29 1   
    17     7    17 ar  
    18     7    18 ar  
    19     7    30 1   
    20     8     9 1   
    21     8    24 1   
    22     8    26 1   
    23     9    10 ar  
    24    10    11 ar  
    25    10    31 1   
    26    11    13 ar  
    27    11    25 1   
    28    12    19 1   
    29    12    20 1   
    30    12    21 1   
    31    12    25 1   
    32    13    14 ar  
    33    13    32 1   
    34    14    33 1   
    35    15    34 1   
    36    15    35 1   
    37    16    23 1   
    38    16    36 1   
    39    17    37 1   
    40    18    38 1   
    41    22    39 1   
    42    23    40 1   
@<TRIPOS>SUBSTRUCTURE
     1 8IQ         1 TEMP              0 ****  ****    0 ROOT
