@<TRIPOS>MOLECULE
8IR
   52    55     1     0     0
SMALL
No Charge or Current Charge


@<TRIPOS>ATOM
      1 Cl           4.2010    -2.3910    -1.3710 cl         1 8IR      -0.177000
      2 CBB          3.5430    -2.2530     0.2630 ca         1 8IR       0.107000
      3 CBD          3.2300    -3.4510     0.9290 ca         1 8IR      -0.097000
      4 CBE          2.6080    -3.4270     2.1870 ca         1 8IR      -0.103000
      5 CBF          2.2840    -2.1980     2.7790 ca         1 8IR      -0.096000
      6 CBG          2.5910    -0.9950     2.1210 ca         1 8IR      -0.108000
      7 CBA          3.2380    -0.9990     0.8640 ca         1 8IR      -0.039000
      8 NAT          3.5470     0.2740     0.2330 n          1 8IR      -0.243900
      9 C4           4.8670     0.4290    -0.3200 ca         1 8IR       0.254900
     10 N3           4.9790     1.1210    -1.4750 nb         1 8IR      -0.185000
     11 C2           6.2120     1.2090    -2.0160 ca         1 8IR       0.144900
     12 N1           7.3470     0.6640    -1.5290 nb         1 8IR      -0.187000
     13 C6           7.2310    -0.0400    -0.3860 ca         1 8IR       0.117900
     14 C5           5.9930    -0.1920     0.2590 ca         1 8IR      -0.242000
     15 CAR          2.6960     1.3990     0.3590 c          1 8IR       0.645700
     16 OAS          3.1510     2.5370     0.4040 o          1 8IR      -0.520100
     17 CAO          1.1950     1.1810     0.3300 ca         1 8IR      -0.187600
     18 CAP          0.3440     2.1510     0.9010 ca         1 8IR      -0.033000
     19 CAQ         -1.0510     1.9820     0.8860 ca         1 8IR      -0.166000
     20 CAN          0.6120     0.0540    -0.2910 ca         1 8IR      -0.033000
     21 CAM         -0.7830    -0.1100    -0.3040 ca         1 8IR      -0.166000
     22 CAL         -1.6290     0.8420     0.2910 ca         1 8IR       0.011000
     23 NAA         -3.0300     0.6040     0.2330 ns         1 8IR      -0.146000
     24 CAB         -4.1160     1.2470     0.8150 c          1 8IR       0.629700
     25 OAC         -4.0040     2.2060     1.5720 o          1 8IR      -0.573100
     26 CAD         -5.4830     0.6840     0.4680 ca         1 8IR      -0.202600
     27 CAE         -6.6390     1.2760     1.0270 ca         1 8IR      -0.029500
     28 CAF         -7.9170     0.7780     0.7250 ca         1 8IR      -0.185500
     29 CAG         -8.0710    -0.3160    -0.1360 ca         1 8IR       0.171100
     30 OAH         -9.3530    -0.7590    -0.3940 os         1 8IR      -0.335100
     31 CAI         -9.6180    -1.8750    -1.2630 c3         1 8IR       0.146900
     32 CAJ         -6.9280    -0.9170    -0.7000 ca         1 8IR      -0.185500
     33 CAK         -5.6460    -0.4230    -0.4020 ca         1 8IR      -0.029500
     34 HBD          3.4550    -4.4040     0.4580 ha         1 8IR       0.133000
     35 HBE          2.3670    -4.3580     2.6950 ha         1 8IR       0.122000
     36 HBF          1.7960    -2.1760     3.7510 ha         1 8IR       0.124000
     37 HBG          2.3430    -0.0570     2.6130 ha         1 8IR       0.131000
     38 H5           5.9170    -0.7660     1.1780 ha         1 8IR       0.139000
     39 H2           6.3000     1.7730    -2.9430 h5         1 8IR       0.053100
     40 H6           8.1400    -0.4890     0.0120 h4         1 8IR       0.023100
     41 HAP          0.7640     3.0400     1.3690 ha         1 8IR       0.129500
     42 HAN          1.2280    -0.6940    -0.7840 ha         1 8IR       0.129500
     43 HAQ         -1.6630     2.7570     1.3370 ha         1 8IR       0.132000
     44 HAM         -1.2080    -0.9880    -0.7850 ha         1 8IR       0.132000
     45 HAA         -3.2800    -0.1850    -0.3460 hn         1 8IR       0.153000
     46 HAE         -6.5530     2.1280     1.6990 ha         1 8IR       0.124000
     47 HAK         -4.7910    -0.9160    -0.8600 ha         1 8IR       0.124000
     48 HAF         -8.7960     1.2450     1.1620 ha         1 8IR       0.128000
     49 HAJ         -7.0130    -1.7670    -1.3720 ha         1 8IR       0.128000
     50 HAI1        -9.2460    -1.6770    -2.2770 h1         1 8IR       0.044700
     51 HAI2        -9.1420    -2.7880    -0.8840 h1         1 8IR       0.044700
     52 HAI3       -10.6980    -2.0570    -1.3280 h1         1 8IR       0.044700
@<TRIPOS>BOND
     1     1     2 1   
     2     2     3 ar  
     3     2     7 ar  
     4     3     4 ar  
     5     3    34 1   
     6     4     5 ar  
     7     4    35 1   
     8     5     6 ar  
     9     5    36 1   
    10     6     7 ar  
    11     6    37 1   
    12     7     8 1   
    13     8     9 1   
    14     8    15 1   
    15     9    10 ar  
    16     9    14 ar  
    17    10    11 ar  
    18    11    12 ar  
    19    11    39 1   
    20    12    13 ar  
    21    13    14 ar  
    22    13    40 1   
    23    14    38 1   
    24    15    16 2   
    25    15    17 1   
    26    17    18 ar  
    27    17    20 ar  
    28    18    19 ar  
    29    18    41 1   
    30    19    22 ar  
    31    19    43 1   
    32    20    21 ar  
    33    20    42 1   
    34    21    22 ar  
    35    21    44 1   
    36    22    23 1   
    37    23    24 1   
    38    23    45 1   
    39    24    25 2   
    40    24    26 1   
    41    26    27 ar  
    42    26    33 ar  
    43    27    28 ar  
    44    27    46 1   
    45    28    29 ar  
    46    28    48 1   
    47    29    30 1   
    48    29    32 ar  
    49    30    31 1   
    50    31    50 1   
    51    31    51 1   
    52    31    52 1   
    53    32    33 ar  
    54    32    49 1   
    55    33    47 1   
@<TRIPOS>SUBSTRUCTURE
     1 8IR         1 TEMP              0 ****  ****    0 ROOT
