@<TRIPOS>MOLECULE
8IR
   52    55     1     0     0
SMALL
abcg2


@<TRIPOS>ATOM
      1 CL           3.5970    -2.0130    -1.7160 cl         1 8IR      -0.177000
      2 CBB          3.1150    -2.1100    -0.0600 ca         1 8IR       0.107000
      3 CBD          2.7480    -3.3350     0.4700 ca         1 8IR      -0.097000
      4 CBE          2.3320    -3.4110     1.7910 ca         1 8IR      -0.103000
      5 CBF          2.2930    -2.2680     2.5780 ca         1 8IR      -0.096000
      6 CBG          2.6800    -1.0500     2.0450 ca         1 8IR      -0.108000
      7 CBA          3.0830    -0.9550     0.7190 ca         1 8IR      -0.039000
      8 NAT          3.4790     0.2950     0.1790 n          1 8IR      -0.243900
      9 C4           4.8250     0.4660    -0.1740 ca         1 8IR       0.254900
     10 N3           5.0910     1.3230    -1.1470 nb         1 8IR      -0.185000
     11 C2           6.3580     1.4580    -1.4980 ca         1 8IR       0.144900
     12 N1           7.3950     0.8120    -0.9890 nb         1 8IR      -0.187000
     13 C6           7.1150    -0.0500    -0.0160 ca         1 8IR       0.117900
     14 C5           5.8320    -0.2650     0.4470 ca         1 8IR      -0.242000
     15 CAR          2.6440     1.4090     0.3030 c          1 8IR       0.645700
     16 OAS          3.0900     2.5250     0.4370 o          1 8IR      -0.520100
     17 CAO          1.1880     1.1410     0.2660 ca         1 8IR      -0.187600
     18 CAP          0.3440     1.8980     1.0720 ca         1 8IR      -0.033000
     19 CAQ         -1.0300     1.7280     1.0400 ca         1 8IR      -0.166000
     20 CAN          0.6250     0.2150    -0.6100 ca         1 8IR      -0.033000
     21 CAM         -0.7430     0.0540    -0.6690 ca         1 8IR      -0.166000
     22 CAL         -1.5910     0.8000     0.1580 ca         1 8IR       0.011000
     23 NAA         -2.9530     0.5400     0.0490 ns         1 8IR      -0.146000
     24 CAB         -4.0020     1.2590     0.5430 c          1 8IR       0.629700
     25 OAC         -3.8670     2.3110     1.1430 o          1 8IR      -0.573100
     26 CAD         -5.3440     0.6790     0.2820 ca         1 8IR      -0.202600
     27 CAE         -6.4490     1.5360     0.2970 ca         1 8IR      -0.029500
     28 CAF         -7.7200     1.0590     0.0680 ca         1 8IR      -0.185500
     29 CAG         -7.9300    -0.3040    -0.1670 ca         1 8IR       0.171100
     30 OAH         -9.1970    -0.6800    -0.3850 os         1 8IR      -0.335100
     31 CAI         -9.4660    -2.0430    -0.6600 c3         1 8IR       0.146900
     32 CAJ         -6.8410    -1.1750    -0.1580 ca         1 8IR      -0.185500
     33 CAK         -5.5660    -0.6770     0.0610 ca         1 8IR      -0.029500
     34 HBD          2.7810    -4.2220    -0.1470 ha         1 8IR       0.133000
     35 HBE          2.0400    -4.3670     2.2020 ha         1 8IR       0.122000
     36 HBF          1.9760    -2.3260     3.6100 ha         1 8IR       0.124000
     37 HBG          2.6760    -0.1610     2.6630 ha         1 8IR       0.131000
     38 H5           5.6430    -0.9640     1.2490 ha         1 8IR       0.139000
     39 H2           6.5640     2.1670    -2.2930 h5         1 8IR       0.053100
     40 H6           7.9490    -0.5890     0.4200 h4         1 8IR       0.023100
     41 HAP          0.7620     2.6240     1.7560 ha         1 8IR       0.129500
     42 HAN          1.2460    -0.3620    -1.2810 ha         1 8IR       0.129500
     43 HAQ         -1.6470     2.3150     1.6980 ha         1 8IR       0.132000
     44 HAM         -1.1650    -0.6570    -1.3690 ha         1 8IR       0.132000
     45 HAA         -3.1810    -0.2290    -0.5630 hn         1 8IR       0.153000
     46 HAE         -6.3080     2.5930     0.4770 ha         1 8IR       0.124000
     47 HAK         -4.7490    -1.3880     0.0830 ha         1 8IR       0.124000
     48 HAF         -8.5650     1.7360     0.0670 ha         1 8IR       0.128000
     49 HAJ         -6.9640    -2.2370    -0.3130 ha         1 8IR       0.128000
     50 HAI1        -8.9380    -2.3870    -1.5530 h1         1 8IR       0.044700
     51 HAI2        -9.1990    -2.6870     0.1800 h1         1 8IR       0.044700
     52 HAI3       -10.5360    -2.1150    -0.8340 h1         1 8IR       0.044700
@<TRIPOS>BOND
     1     1     2 1   
     2     2     3 ar  
     3     2     7 ar  
     4     3     4 ar  
     5     3    34 1   
     6     4     5 ar  
     7     4    35 1   
     8     5     6 ar  
     9     5    36 1   
    10     6     7 ar  
    11     6    37 1   
    12     7     8 1   
    13     8     9 1   
    14     8    15 1   
    15     9    10 ar  
    16     9    14 ar  
    17    10    11 ar  
    18    11    12 ar  
    19    11    39 1   
    20    12    13 ar  
    21    13    14 ar  
    22    13    40 1   
    23    14    38 1   
    24    15    16 2   
    25    15    17 1   
    26    17    18 ar  
    27    17    20 ar  
    28    18    19 ar  
    29    18    41 1   
    30    19    22 ar  
    31    19    43 1   
    32    20    21 ar  
    33    20    42 1   
    34    21    22 ar  
    35    21    44 1   
    36    22    23 1   
    37    23    24 1   
    38    23    45 1   
    39    24    25 2   
    40    24    26 1   
    41    26    27 ar  
    42    26    33 ar  
    43    27    28 ar  
    44    27    46 1   
    45    28    29 ar  
    46    28    48 1   
    47    29    30 1   
    48    29    32 ar  
    49    30    31 1   
    50    31    50 1   
    51    31    51 1   
    52    31    52 1   
    53    32    33 ar  
    54    32    49 1   
    55    33    47 1   
@<TRIPOS>SUBSTRUCTURE
     1 8IR         1 TEMP              0 ****  ****    0 ROOT
