@<TRIPOS>MOLECULE
8IS
   60    62     1     0     0
SMALL
No Charge or Current Charge


@<TRIPOS>ATOM
      1 C02         19.6780    42.0630    37.5470 c3         1 8IS       0.147300
      2 C03         20.8040    42.1500    38.6270 c3         1 8IS       0.130800
      3 C05         22.0500    40.0400    38.0630 c3         1 8IS       0.163800
      4 C06         22.5890    38.7020    38.6460 c6         1 8IS      -0.065700
      5 C07         23.2400    37.8180    37.5490 c6         1 8IS      -0.070900
      6 C08         23.6140    36.4050    38.0870 c6         1 8IS      -0.071400
      7 C09         23.9030    36.3840    39.6140 c6         1 8IS      -0.074400
      8 C10         24.5290    37.7150    40.0890 c6         1 8IS      -0.071400
      9 C11         23.5860    38.9270    39.8310 c6         1 8IS      -0.070900
     10 C12         18.4190    41.3010    38.0410 c3         1 8IS       0.114000
     11 C14         17.1610    41.4720    40.2280 c          1 8IS       0.608100
     12 C16         16.5630    42.4820    41.2380 c3         1 8IS      -0.051100
     13 C17         17.3530    42.5690    42.5580 ca         1 8IS      -0.071800
     14 C18         18.6810    42.0930    42.6660 ca         1 8IS      -0.095500
     15 C19         19.3850    42.2040    43.8780 ca         1 8IS      -0.113750
     16 C20         18.7800    42.8010    44.9940 ca         1 8IS      -0.106500
     17 C21         17.4700    43.2950    44.8960 ca         1 8IS      -0.113750
     18 C22         16.7640    43.1850    43.6850 ca         1 8IS      -0.095500
     19 C23         15.0750    42.1780    41.4540 ca         1 8IS      -0.071800
     20 C24         14.6730    41.0820    42.2460 ca         1 8IS      -0.095500
     21 C25         13.3090    40.8080    42.4430 ca         1 8IS      -0.113750
     22 C26         12.3340    41.6270    41.8500 ca         1 8IS      -0.106500
     23 C27         12.7250    42.7190    41.0580 ca         1 8IS      -0.113750
     24 C28         14.0900    42.9940    40.8610 ca         1 8IS      -0.095500
     25 N04         21.3080    40.8250    39.0680 n7         1 8IS      -0.861400
     26 N13         17.6890    42.0340    39.0860 ns         1 8IS      -0.499900
     27 O01         19.3040    43.3940    37.1340 oh         1 8IS      -0.669000
     28 O15         17.1830    40.2630    40.4200 o          1 8IS      -0.589100
     29 H1          20.0760    41.5180    36.6810 h1         1 8IS       0.038700
     30 H2          21.6350    42.7490    38.2290 h1         1 8IS       0.034700
     31 H3          20.4050    42.6920    39.4950 h1         1 8IS       0.034700
     32 H4          21.3980    39.8010    37.2130 h1         1 8IS       0.025200
     33 H5          22.9000    40.6190    37.6770 h1         1 8IS       0.025200
     34 H6          21.7080    38.1650    39.0270 hc         1 8IS       0.068700
     35 H7          24.1440    38.3170    37.1720 hc         1 8IS       0.035950
     36 H8          22.5660    37.7140    36.6880 hc         1 8IS       0.035950
     37 H9          22.8010    35.6990    37.8700 hc         1 8IS       0.037450
     38 H10         24.4910    36.0350    37.5380 hc         1 8IS       0.037450
     39 H11         22.9690    36.2070    40.1660 hc         1 8IS       0.040700
     40 H12         24.5670    35.5430    39.8570 hc         1 8IS       0.040700
     41 H13         24.7800    37.6580    41.1570 hc         1 8IS       0.037450
     42 H14         25.4800    37.8720    39.5600 hc         1 8IS       0.037450
     43 H15         24.2040    39.8160    39.6450 hc         1 8IS       0.035950
     44 H16         23.0130    39.1410    40.7430 hc         1 8IS       0.035950
     45 H17         17.7420    41.1410    37.1920 h1         1 8IS       0.070200
     46 H18         18.7190    40.3130    38.4140 h1         1 8IS       0.070200
     47 H19         16.6450    43.4740    40.7770 hc         1 8IS       0.061700
     48 H20         19.1850    41.6360    41.8180 ha         1 8IS       0.118000
     49 H21         20.4040    41.8300    43.9490 ha         1 8IS       0.111500
     50 H22         19.3270    42.8880    45.9310 ha         1 8IS       0.111500
     51 H23         17.0010    43.7670    45.7560 ha         1 8IS       0.111500
     52 H24         15.7540    43.5840    43.6270 ha         1 8IS       0.118000
     53 H25         15.4200    40.4420    42.7100 ha         1 8IS       0.118000
     54 H26         13.0080    39.9610    43.0560 ha         1 8IS       0.111500
     55 H27         11.2780    41.4150    42.0020 ha         1 8IS       0.111500
     56 H28         11.9710    43.3540    40.5980 ha         1 8IS       0.111500
     57 H29         14.3780    43.8440    40.2460 ha         1 8IS       0.118000
     58 H30         21.9430    40.9790    39.8610 hn         1 8IS       0.417000
     59 H32         17.6430    43.0430    39.0010 hn         1 8IS       0.318500
     60 H33         20.0810    43.7840    36.6750 ho         1 8IS       0.444000
@<TRIPOS>BOND
     1     1     2 1   
     2     1    10 1   
     3     1    27 1   
     4     1    29 1   
     5     2    25 1   
     6     2    30 1   
     7     2    31 1   
     8     3     4 1   
     9     3    25 1   
    10     3    32 1   
    11     3    33 1   
    12     4     5 1   
    13     4     9 1   
    14     4    34 1   
    15     5     6 1   
    16     5    35 1   
    17     5    36 1   
    18     6     7 1   
    19     6    37 1   
    20     6    38 1   
    21     7     8 1   
    22     7    39 1   
    23     7    40 1   
    24     8     9 1   
    25     8    41 1   
    26     8    42 1   
    27     9    43 1   
    28     9    44 1   
    29    10    26 1   
    30    10    45 1   
    31    10    46 1   
    32    11    12 1   
    33    11    26 1   
    34    11    28 2   
    35    12    13 1   
    36    12    19 1   
    37    12    47 1   
    38    13    14 ar  
    39    13    18 ar  
    40    14    15 ar  
    41    14    48 1   
    42    15    16 ar  
    43    15    49 1   
    44    16    17 ar  
    45    16    50 1   
    46    17    18 ar  
    47    17    51 1   
    48    18    52 1   
    49    19    20 ar  
    50    19    24 ar  
    51    20    21 ar  
    52    20    53 1   
    53    21    22 ar  
    54    21    54 1   
    55    22    23 ar  
    56    22    55 1   
    57    23    24 ar  
    58    23    56 1   
    59    24    57 1   
    60    25    58 1   
    61    26    59 1   
    62    27    60 1   
@<TRIPOS>SUBSTRUCTURE
     1 8IS         1 TEMP              0 ****  ****    0 ROOT
