@<TRIPOS>MOLECULE
8IS
   60    62     1     0     0
SMALL
bcc


@<TRIPOS>ATOM
      1 C02         19.9840    42.6650    37.6930 c3         1 8IS       0.124100
      2 C03         20.7530    42.4170    38.9910 c3         1 8IS       0.130800
      3 C05         21.9740    40.3600    38.5310 c3         1 8IS       0.163800
      4 C06         22.0900    38.8790    38.8630 c6         1 8IS      -0.065700
      5 C07         23.1520    38.2050    37.9990 c6         1 8IS      -0.070900
      6 C08         23.1260    36.6790    38.1680 c6         1 8IS      -0.071400
      7 C09         22.6900    36.2640    39.5810 c6         1 8IS      -0.074400
      8 C10         23.1270    37.3090    40.5990 c6         1 8IS      -0.071400
      9 C11         22.4050    38.6420    40.3530 c6         1 8IS      -0.070900
     10 C12         18.6130    42.0080    37.6850 c3         1 8IS       0.114000
     11 C14         17.2480    41.6270    39.7030 c          1 8IS       0.675100
     12 C16         16.6010    42.3610    40.8790 c3         1 8IS      -0.051100
     13 C17         17.6390    42.7090    41.9300 ca         1 8IS      -0.071800
     14 C18         18.7390    41.9000    42.2000 ca         1 8IS      -0.113500
     15 C19         19.6530    42.2550    43.1850 ca         1 8IS      -0.131750
     16 C20         19.4770    43.4190    43.9190 ca         1 8IS      -0.124500
     17 C21         18.3790    44.2300    43.6590 ca         1 8IS      -0.131750
     18 C22         17.4710    43.8770    42.6720 ca         1 8IS      -0.113500
     19 C23         15.4360    41.5800    41.4390 ca         1 8IS      -0.071800
     20 C24         15.6160    40.4930    42.2900 ca         1 8IS      -0.113500
     21 C25         14.5250    39.7810    42.7670 ca         1 8IS      -0.131750
     22 C26         13.2350    40.1440    42.3990 ca         1 8IS      -0.124500
     23 C27         13.0450    41.2280    41.5550 ca         1 8IS      -0.131750
     24 C28         14.1400    41.9390    41.0800 ca         1 8IS      -0.113500
     25 N04         20.9180    41.0090    39.2860 n7         1 8IS      -0.806200
     26 N13         17.7910    42.4450    38.7880 ns         1 8IS      -0.566900
     27 O01         19.7890    44.0510    37.4930 oh         1 8IS      -0.606800
     28 O15         17.2820    40.4080    39.6350 o          1 8IS      -0.589100
     29 H1          20.5400    42.2340    36.8480 h1         1 8IS       0.038700
     30 H2          21.7180    42.9500    38.9240 h1         1 8IS       0.034700
     31 H3          20.2010    42.8760    39.8140 h1         1 8IS       0.034700
     32 H4          21.7530    40.4600    37.4640 h1         1 8IS       0.025200
     33 H5          22.9540    40.8430    38.6900 h1         1 8IS       0.025200
     34 H6          21.1230    38.4160    38.6310 hc         1 8IS       0.068700
     35 H7          24.1350    38.6010    38.2780 hc         1 8IS       0.035950
     36 H8          23.0100    38.4670    36.9480 hc         1 8IS       0.035950
     37 H9          22.4500    36.2370    37.4330 hc         1 8IS       0.037450
     38 H10         24.1170    36.2750    37.9530 hc         1 8IS       0.037450
     39 H11         21.6020    36.1570    39.6230 hc         1 8IS       0.040700
     40 H12         23.1010    35.2830    39.8280 hc         1 8IS       0.040700
     41 H13         22.9390    36.9640    41.6170 hc         1 8IS       0.037450
     42 H14         24.2090    37.4500    40.5200 hc         1 8IS       0.037450
     43 H15         23.0230    39.4630    40.7330 hc         1 8IS       0.035950
     44 H16         21.4770    38.6650    40.9310 hc         1 8IS       0.035950
     45 H17         18.1150    42.2270    36.7360 h1         1 8IS       0.070200
     46 H18         18.7340    40.9300    37.7480 h1         1 8IS       0.070200
     47 H19         16.2010    43.3090    40.5040 hc         1 8IS       0.061700
     48 H20         18.8990    40.9850    41.6440 ha         1 8IS       0.136000
     49 H21         20.5050    41.6150    43.3760 ha         1 8IS       0.129500
     50 H22         20.1900    43.6950    44.6850 ha         1 8IS       0.129500
     51 H23         18.2330    45.1430    44.2220 ha         1 8IS       0.129500
     52 H24         16.6210    44.5190    42.4730 ha         1 8IS       0.136000
     53 H25         16.6120    40.2010    42.5970 ha         1 8IS       0.136000
     54 H26         14.6820    38.9380    43.4280 ha         1 8IS       0.129500
     55 H27         12.3850    39.5880    42.7730 ha         1 8IS       0.129500
     56 H28         12.0450    41.5260    41.2670 ha         1 8IS       0.129500
     57 H29         13.9830    42.7860    40.4220 ha         1 8IS       0.136000
     58 H30         21.1080    40.9120    40.2750 hn         1 8IS       0.361800
     59 H32         17.6910    43.4400    38.9190 hn         1 8IS       0.318500
     60 H33         20.6430    44.4930    37.5400 ho         1 8IS       0.405000
@<TRIPOS>BOND
     1     1     2 1   
     2     1    10 1   
     3     1    27 1   
     4     1    29 1   
     5     2    25 1   
     6     2    30 1   
     7     2    31 1   
     8     3     4 1   
     9     3    25 1   
    10     3    32 1   
    11     3    33 1   
    12     4     5 1   
    13     4     9 1   
    14     4    34 1   
    15     5     6 1   
    16     5    35 1   
    17     5    36 1   
    18     6     7 1   
    19     6    37 1   
    20     6    38 1   
    21     7     8 1   
    22     7    39 1   
    23     7    40 1   
    24     8     9 1   
    25     8    41 1   
    26     8    42 1   
    27     9    43 1   
    28     9    44 1   
    29    10    26 1   
    30    10    45 1   
    31    10    46 1   
    32    11    12 1   
    33    11    26 1   
    34    11    28 2   
    35    12    13 1   
    36    12    19 1   
    37    12    47 1   
    38    13    14 ar  
    39    13    18 ar  
    40    14    15 ar  
    41    14    48 1   
    42    15    16 ar  
    43    15    49 1   
    44    16    17 ar  
    45    16    50 1   
    46    17    18 ar  
    47    17    51 1   
    48    18    52 1   
    49    19    20 ar  
    50    19    24 ar  
    51    20    21 ar  
    52    20    53 1   
    53    21    22 ar  
    54    21    54 1   
    55    22    23 ar  
    56    22    55 1   
    57    23    24 ar  
    58    23    56 1   
    59    24    57 1   
    60    25    58 1   
    61    26    59 1   
    62    27    60 1   
@<TRIPOS>SUBSTRUCTURE
     1 8IS         1 TEMP              0 ****  ****    0 ROOT
