@<TRIPOS>MOLECULE
8IT
   31    32     1     0     0
SMALL
abcg2


@<TRIPOS>ATOM
      1 N1          27.4000     8.5340    15.3310 nb         1 8IT      -0.184000
      2 C4          25.2930     9.3600    14.5870 cp         1 8IT      -0.087000
      3 C5          23.8430     9.2100    14.4000 cp         1 8IT      -0.135000
      4 C6          23.2440     9.4560    13.1630 ca         1 8IT      -0.080000
      5 C7          21.8790     9.3290    12.9790 ca         1 8IT      -0.118000
      6 C8          21.0450     8.9600    14.0370 ca         1 8IT       0.039700
      7 C10         22.9940     8.8450    15.4350 ca         1 8IT       0.177000
      8 C13         18.9100    10.0120    13.2070 c3         1 8IT      -0.040400
      9 C1          26.0900     8.3910    15.1900 ca         1 8IT       0.104900
     10 C11         19.5630     8.7890    13.8500 c3         1 8IT      -0.181400
     11 C12         19.3410     7.4760    13.0380 c          1 8IT       0.728000
     12 C2          27.9330     9.6520    14.8620 ca         1 8IT       0.093900
     13 C3          25.9710    10.4870    14.1340 ca         1 8IT       0.104900
     14 C9          21.6300     8.7160    15.2770 ca         1 8IT      -0.163000
     15 F1          23.5170     8.6300    16.6550 f          1 8IT      -0.198000
     16 N2          27.2810    10.6370    14.2640 nb         1 8IT      -0.184000
     17 O1          19.4120     7.5720    11.7990 o          1 8IT      -0.714500
     18 O2          19.1500     6.4440    13.7070 o          1 8IT      -0.714500
     19 H1          23.8710     9.7320    12.3240 ha         1 8IT       0.101000
     20 H2          21.4600     9.5090    11.9990 ha         1 8IT       0.140000
     21 H4          19.1880    10.9040    13.7760 hc         1 8IT       0.022200
     22 H5          25.6610     7.4640    15.5530 h4         1 8IT       0.030100
     23 H6          19.1190     8.6510    14.8410 hc         1 8IT       0.045700
     24 H7          16.9430    10.8110    12.7550 hc         1 8IT       0.024033
     25 H8          17.0710     9.0700    12.5310 hc         1 8IT       0.024033
     26 H9          16.9770     9.7460    14.1570 hc         1 8IT       0.024033
     27 H10         29.0040     9.7710    14.9760 h5         1 8IT       0.036100
     28 H11         25.4290    11.2970    13.6550 h4         1 8IT       0.030100
     29 H12         21.0200     8.4380    16.1290 ha         1 8IT       0.131000
     30 C14         17.3920     9.9030    13.1590 c3         1 8IT      -0.079100
     31 H3          19.2960    10.1580    12.1970 hc         1 8IT       0.022200
@<TRIPOS>BOND
     1     1     9 ar  
     2     1    12 ar  
     3     2     3 1   
     4     2     9 ar  
     5     2    13 ar  
     6     3     4 ar  
     7     3     7 ar  
     8     4     5 ar  
     9     4    19 1   
    10     5     6 ar  
    11     5    20 1   
    12     6    10 1   
    13     6    14 ar  
    14     7    14 ar  
    15     7    15 1   
    16     8    10 1   
    17     8    21 1   
    18     8    30 1   
    19     8    31 1   
    20     9    22 1   
    21    10    11 1   
    22    10    23 1   
    23    11    17 1   
    24    11    18 1   
    25    12    16 ar  
    26    12    27 1   
    27    13    16 ar  
    28    13    28 1   
    29    14    29 1   
    30    24    30 1   
    31    25    30 1   
    32    26    30 1   
@<TRIPOS>SUBSTRUCTURE
     1 8IT         1 TEMP              0 ****  ****    0 ROOT
