@<TRIPOS>MOLECULE
8IT
   31    32     1     0     0
SMALL
No Charge or Current Charge


@<TRIPOS>ATOM
      1 N1          27.4740     8.6110    15.4640 nb         1 8IT      -0.184000
      2 C4          25.3460     9.3820    14.5890 cp         1 8IT      -0.087000
      3 C5          23.8680     9.2130    14.4070 cp         1 8IT      -0.135000
      4 C6          23.2650     9.5290    13.1660 ca         1 8IT      -0.080000
      5 C7          21.8830     9.3780    12.9670 ca         1 8IT      -0.118000
      6 C8          21.0540     8.9100    14.0060 ca         1 8IT       0.039700
      7 C10         23.0210     8.7430    15.4460 ca         1 8IT       0.177000
      8 C13         18.8700     9.9980    13.1920 c3         1 8IT      -0.040400
      9 C1          26.1420     8.4570    15.3140 ca         1 8IT       0.104900
     10 C11         19.5440     8.7430    13.8140 c3         1 8IT      -0.181400
     11 C12         19.2390     7.4520    13.0210 c          1 8IT       0.728000
     12 C2          28.0230     9.6990    14.8850 ca         1 8IT       0.093900
     13 C3          26.0460    10.4780    14.0220 ca         1 8IT       0.104900
     14 C9          21.6400     8.5940    15.2460 ca         1 8IT      -0.163000
     15 F1          23.5210     8.4590    16.6690 f          1 8IT      -0.198000
     16 N2          27.3770    10.6410    14.1690 nb         1 8IT      -0.184000
     17 O1          19.6180     7.3700    11.8610 o          1 8IT      -0.714500
     18 O2          18.6560     6.5470    13.6010 o          1 8IT      -0.714500
     19 H1          23.8780     9.8840    12.3400 ha         1 8IT       0.101000
     20 H2          21.4590     9.6170    11.9950 ha         1 8IT       0.140000
     21 H4          19.1850    10.8850    13.7560 hc         1 8IT       0.022200
     22 H5          25.7080     7.5680    15.7660 h4         1 8IT       0.030100
     23 H6          19.0970     8.6150    14.8080 hc         1 8IT       0.045700
     24 H7          16.9130    10.8650    12.7780 hc         1 8IT       0.024033
     25 H8          16.9660     9.1010    12.5910 hc         1 8IT       0.024033
     26 H9          16.9460     9.8250    14.2170 hc         1 8IT       0.024033
     27 H10         29.0980     9.8260    15.0050 h5         1 8IT       0.036100
     28 H11         25.5270    11.2440    13.4480 h4         1 8IT       0.030100
     29 H12         21.0230     8.2360    16.0660 ha         1 8IT       0.131000
     30 C14         17.3290     9.9410    13.1960 c3         1 8IT      -0.079100
     31 H3          19.2120    10.1420    12.1610 hc         1 8IT       0.022200
@<TRIPOS>BOND
     1     1     9 ar  
     2     1    12 ar  
     3     2     3 1   
     4     2     9 ar  
     5     2    13 ar  
     6     3     4 ar  
     7     3     7 ar  
     8     4     5 ar  
     9     4    19 1   
    10     5     6 ar  
    11     5    20 1   
    12     6    10 1   
    13     6    14 ar  
    14     7    14 ar  
    15     7    15 1   
    16     8    10 1   
    17     8    21 1   
    18     8    30 1   
    19     8    31 1   
    20     9    22 1   
    21    10    11 1   
    22    10    23 1   
    23    11    17 1   
    24    11    18 1   
    25    12    16 ar  
    26    12    27 1   
    27    13    16 ar  
    28    13    28 1   
    29    14    29 1   
    30    24    30 1   
    31    25    30 1   
    32    26    30 1   
@<TRIPOS>SUBSTRUCTURE
     1 8IT         1 TEMP              0 ****  ****    0 ROOT
