@<TRIPOS>MOLECULE
8IU
   44    47     1     0     0
SMALL
bcc


@<TRIPOS>ATOM
      1 C10        114.2090   140.7610    81.1510 ca         1 8IU      -0.094500
      2 C13        115.5960   142.4810    79.4780 ca         1 8IU      -0.139500
      3 C17        113.9380   136.9290    76.4780 cc         1 8IU      -0.357600
      4 C21        113.8360   134.1260    80.5480 c5         1 8IU       0.240800
      5 C22        114.0800   133.5220    81.9210 c5         1 8IU      -0.102400
      6 C03        113.3580   134.4710    82.8710 c5         1 8IU       0.163500
      7 C04        113.6730   135.8330    82.2550 c5         1 8IU       0.216800
      8 C06        113.9460   136.5860    79.9800 cc         1 8IU       0.332300
      9 C07        114.1960   137.8900    80.3940 cd         1 8IU      -0.427300
     10 C08        114.3730   138.9180    79.4550 cd         1 8IU       0.556800
     11 C09        114.6440   140.3020    79.9070 ca         1 8IU      -0.154500
     12 C11        114.4630   142.0640    81.5530 ca         1 8IU      -0.139500
     13 C12        115.1600   142.9280    80.7190 ca         1 8IU      -0.114000
     14 C14        115.3360   141.1810    79.0730 ca         1 8IU      -0.094500
     15 C16        114.0870   137.4710    77.7460 cd         1 8IU       0.424500
     16 C18        113.6410   135.5850    76.7030 cc         1 8IU       0.396500
     17 N02        113.8010   134.3820    84.2460 n3         1 8IU      -0.707600
     18 N05        113.7620   135.5680    80.8250 nh         1 8IU      -0.680000
     19 N15        114.3330   138.7200    78.1530 nd         1 8IU      -0.699000
     20 N19        113.6000   135.2690    77.9850 nd         1 8IU      -0.611100
     21 N20        113.8840   136.4140    78.6230 na         1 8IU       0.020200
     22 H1         113.6460   140.1100    81.8080 ha         1 8IU       0.141000
     23 H2         116.1410   143.1480    78.8230 ha         1 8IU       0.131500
     24 H3         114.0250   137.4490    75.5400 ha         1 8IU       0.176000
     25 H4         112.9010   133.7680    80.1180 h1         1 8IU       0.069200
     26 H5         114.6350   133.8950    79.8500 h1         1 8IU       0.069200
     27 H6         113.7180   132.4960    81.9680 hc         1 8IU       0.065200
     28 H7         115.1470   133.5200    82.1570 hc         1 8IU       0.065200
     29 H8         113.9620   133.0280    85.8220 h1         1 8IU       0.034200
     30 H9         112.5590   132.7260    84.7850 h1         1 8IU       0.034200
     31 H10        114.1910   132.3170    84.2330 h1         1 8IU       0.034200
     32 H11        112.2690   134.2930    82.7910 h1         1 8IU       0.036700
     33 H12        114.6260   136.2050    82.6510 h1         1 8IU       0.060200
     34 H13        112.9040   136.5830    82.4530 h1         1 8IU       0.060200
     35 H14        114.3060   138.0960    81.4460 ha         1 8IU       0.153000
     36 H15        114.1100   142.4060    82.5170 ha         1 8IU       0.131500
     37 H16        115.3590   143.9440    81.0330 ha         1 8IU       0.130000
     38 H17        115.6790   140.8400    78.1060 ha         1 8IU       0.141000
     39 H18        113.4460   134.8200    75.9650 h4         1 8IU       0.041800
     40 H19        113.5010   135.2740    86.1090 h1         1 8IU       0.034200
     41 H20        113.3720   136.3790    84.7510 h1         1 8IU       0.034200
     42 H21        112.0470   135.2560    85.0990 h1         1 8IU       0.034200
     43 C01        113.6110   133.0520    84.7900 c3         1 8IU       0.147600
     44 C23        113.1420   135.3660    85.0830 c3         1 8IU       0.147600
@<TRIPOS>BOND
     1     1    11 ar  
     2     1    12 ar  
     3     1    22 1   
     4     2    13 ar  
     5     2    14 ar  
     6     2    23 1   
     7     3    15 2   
     8     3    16 1   
     9     3    24 1   
    10     4     5 1   
    11     4    18 1   
    12     4    25 1   
    13     4    26 1   
    14     5     6 1   
    15     5    27 1   
    16     5    28 1   
    17     6     7 1   
    18     6    17 1   
    19     6    32 1   
    20     7    18 1   
    21     7    33 1   
    22     7    34 1   
    23     8     9 2   
    24     8    18 1   
    25     8    21 1   
    26     9    10 1   
    27     9    35 1   
    28    10    11 1   
    29    10    19 2   
    30    11    14 ar  
    31    12    13 ar  
    32    12    36 1   
    33    13    37 1   
    34    14    38 1   
    35    15    19 1   
    36    15    21 1   
    37    16    20 2   
    38    16    39 1   
    39    17    43 1   
    40    17    44 1   
    41    20    21 1   
    42    29    43 1   
    43    30    43 1   
    44    31    43 1   
    45    40    44 1   
    46    41    44 1   
    47    42    44 1   
@<TRIPOS>SUBSTRUCTURE
     1 8IU         1 TEMP              0 ****  ****    0 ROOT
