@<TRIPOS>MOLECULE
8IU
   44    47     1     0     0
SMALL
No Charge or Current Charge


@<TRIPOS>ATOM
      1 C10        113.9670   140.8240    80.9280 ca         1 8IU      -0.076500
      2 C13        115.9940   142.3170    79.6850 ca         1 8IU      -0.121500
      3 C17        114.0290   137.0110    76.4390 cc         1 8IU      -0.407600
      4 C21        113.6950   134.1660    80.5420 c5         1 8IU       0.240800
      5 C22        114.1720   133.6650    81.9340 c5         1 8IU      -0.102400
      6 C03        113.2230   134.4300    82.9010 c5         1 8IU       0.163500
      7 C04        113.3320   135.8690    82.2970 c5         1 8IU       0.216800
      8 C06        113.6480   136.5580    79.9240 cc         1 8IU       0.420000
      9 C07        113.9670   137.8600    80.2990 cd         1 8IU      -0.344000
     10 C08        114.3530   138.8930    79.3640 cd         1 8IU       0.491500
     11 C09        114.6940   140.2460    79.8620 ca         1 8IU      -0.154500
     12 C11        114.2640   142.1220    81.3780 ca         1 8IU      -0.121500
     13 C12        115.2810   142.8680    80.7610 ca         1 8IU      -0.096000
     14 C14        115.6980   141.0190    79.2320 ca         1 8IU      -0.076500
     15 C16        114.0800   137.4360    77.7150 cd         1 8IU       0.424500
     16 C18        113.5760   135.6890    76.5100 cc         1 8IU       0.396500
     17 N02        113.8100   134.4050    84.2900 n3         1 8IU      -0.707600
     18 N05        113.2630   135.5640    80.8390 nh         1 8IU      -0.818400
     19 N15        114.4520   138.7200    77.9910 nd         1 8IU      -0.699000
     20 N19        113.3450   135.2610    77.7430 nd         1 8IU      -0.611100
     21 N20        113.6800   136.3880    78.5270 na         1 8IU       0.070900
     22 H1         113.1580   140.2760    81.4070 ha         1 8IU       0.123000
     23 H2         116.7770   142.8950    79.1990 ha         1 8IU       0.113500
     24 H3         114.2670   137.5640    75.5400 ha         1 8IU       0.226000
     25 H4         112.8520   133.5670    80.1700 h1         1 8IU       0.069200
     26 H5         114.5110   134.1000    79.8080 h1         1 8IU       0.069200
     27 H6         114.0900   132.5770    82.0190 hc         1 8IU       0.065200
     28 H7         115.2220   133.9330    82.1040 hc         1 8IU       0.065200
     29 H8         114.4140   133.1030    85.8730 h1         1 8IU       0.034200
     30 H9         112.9910   132.5480    84.9610 h1         1 8IU       0.034200
     31 H10        114.6210   132.4190    84.2570 h1         1 8IU       0.034200
     32 H11        112.1940   134.0440    82.8630 h1         1 8IU       0.036700
     33 H12        114.2890   136.3330    82.5740 h1         1 8IU       0.060200
     34 H13        112.5100   136.5180    82.6310 h1         1 8IU       0.060200
     35 H14        113.9510   138.1350    81.3420 ha         1 8IU       0.135000
     36 H15        113.7000   142.5530    82.2020 ha         1 8IU       0.113500
     37 H16        115.5090   143.8730    81.1100 ha         1 8IU       0.112000
     38 H17        116.2630   140.6120    78.3960 ha         1 8IU       0.123000
     39 H18        113.4010   135.0130    75.6830 h4         1 8IU       0.041800
     40 H19        113.6320   135.2770    86.2320 h1         1 8IU       0.034200
     41 H20        113.1550   136.3510    84.9100 h1         1 8IU       0.034200
     42 H21        112.0850   135.0140    85.3950 h1         1 8IU       0.034200
     43 C01        113.9650   133.0480    84.8720 c3         1 8IU       0.147600
     44 C23        113.1340   135.3090    85.2540 c3         1 8IU       0.147600
@<TRIPOS>BOND
     1     1    11 ar  
     2     1    12 ar  
     3     1    22 1   
     4     2    13 ar  
     5     2    14 ar  
     6     2    23 1   
     7     3    15 2   
     8     3    16 1   
     9     3    24 1   
    10     4     5 1   
    11     4    18 1   
    12     4    25 1   
    13     4    26 1   
    14     5     6 1   
    15     5    27 1   
    16     5    28 1   
    17     6     7 1   
    18     6    17 1   
    19     6    32 1   
    20     7    18 1   
    21     7    33 1   
    22     7    34 1   
    23     8     9 2   
    24     8    18 1   
    25     8    21 1   
    26     9    10 1   
    27     9    35 1   
    28    10    11 1   
    29    10    19 2   
    30    11    14 ar  
    31    12    13 ar  
    32    12    36 1   
    33    13    37 1   
    34    14    38 1   
    35    15    19 1   
    36    15    21 1   
    37    16    20 2   
    38    16    39 1   
    39    17    43 1   
    40    17    44 1   
    41    20    21 1   
    42    29    43 1   
    43    30    43 1   
    44    31    43 1   
    45    40    44 1   
    46    41    44 1   
    47    42    44 1   
@<TRIPOS>SUBSTRUCTURE
     1 8IU         1 TEMP              0 ****  ****    0 ROOT
