@<TRIPOS>MOLECULE
8IV
   60    62     1     0     0
SMALL
No Charge or Current Charge


@<TRIPOS>ATOM
      1 C02         20.4620    41.9200    37.3450 c3         1 8IV       0.148300
      2 C03         21.6090    42.0620    38.3950 c3         1 8IV       0.130800
      3 C05         22.2710    43.1000    40.5960 c3         1 8IV       0.169800
      4 C06         22.9170    41.8290    41.2390 c6         1 8IV      -0.058700
      5 C07         24.1480    42.2280    42.1110 c6         1 8IV      -0.072900
      6 C08         24.5690    41.0760    43.0540 c6         1 8IV      -0.071400
      7 C09         23.4420    40.7290    44.0690 c6         1 8IV      -0.074400
      8 C10         22.0250    41.1170    43.5630 c6         1 8IV      -0.071400
      9 C11         21.8960    40.9430    42.0310 c6         1 8IV      -0.072900
     10 C12         19.3280    40.9470    37.7750 c3         1 8IV       0.110000
     11 C14         18.2540    40.9080    40.0680 c          1 8IV       0.618100
     12 C16         17.3310    41.7200    41.0130 c3         1 8IV      -0.048100
     13 C17         17.9640    41.9400    42.3910 ca         1 8IV      -0.074300
     14 C18         18.6060    43.1620    42.6820 ca         1 8IV      -0.093250
     15 C19         19.1600    43.3900    43.9530 ca         1 8IV      -0.114500
     16 C20         19.0810    42.3980    44.9450 ca         1 8IV      -0.106500
     17 C21         18.4540    41.1740    44.6600 ca         1 8IV      -0.114500
     18 C22         17.9000    40.9450    43.3880 ca         1 8IV      -0.093250
     19 C23         15.8980    41.1670    41.1130 ca         1 8IV      -0.074300
     20 C24         15.6100    39.7840    41.0560 ca         1 8IV      -0.093250
     21 C25         14.2850    39.3260    41.1550 ca         1 8IV      -0.114500
     22 C26         13.2320    40.2400    41.3150 ca         1 8IV      -0.106500
     23 C27         13.5060    41.6150    41.3800 ca         1 8IV      -0.114500
     24 C28         14.8310    42.0750    41.2810 ca         1 8IV      -0.093250
     25 N04         21.2060    42.8270    39.6020 n7         1 8IV      -0.863400
     26 N13         18.4600    41.4870    38.8310 ns         1 8IV      -0.501900
     27 O01         21.0170    41.4590    36.1010 oh         1 8IV      -0.657000
     28 O15         18.7310    39.8170    40.3570 o          1 8IV      -0.587100
     29 H1          20.0180    42.9110    37.1820 h1         1 8IV       0.020700
     30 H2          21.9440    41.0530    38.6720 h1         1 8IV       0.034700
     31 H3          22.4580    42.5680    37.9140 h1         1 8IV       0.034700
     32 H4          23.0710    43.6860    40.1210 h1         1 8IV       0.027700
     33 H5          21.8610    43.7160    41.4080 h1         1 8IV       0.027700
     34 H6          23.3040    41.2220    40.4100 hc         1 8IV       0.044700
     35 H7          24.9890    42.5050    41.4600 hc         1 8IV       0.045200
     36 H8          23.9190    43.1200    42.7110 hc         1 8IV       0.045200
     37 H9          24.8100    40.1890    42.4530 hc         1 8IV       0.036450
     38 H10         25.4880    41.3420    43.5930 hc         1 8IV       0.036450
     39 H11         23.6310    41.2390    45.0230 hc         1 8IV       0.035200
     40 H12         23.4780    39.6530    44.2870 hc         1 8IV       0.035200
     41 H13         21.8140    42.1620    43.8270 hc         1 8IV       0.036450
     42 H14         21.2680    40.5090    44.0780 hc         1 8IV       0.036450
     43 H15         20.8660    41.1630    41.7230 hc         1 8IV       0.045200
     44 H16         22.0620    39.8870    41.7800 hc         1 8IV       0.045200
     45 H17         18.6970    40.7320    36.9030 h1         1 8IV       0.071700
     46 H18         19.7750    39.9990    38.1000 h1         1 8IV       0.071700
     47 H19         17.2240    42.7020    40.5360 hc         1 8IV       0.055700
     48 H20         18.6740    43.9400    41.9250 ha         1 8IV       0.117750
     49 H21         19.6520    44.3360    44.1690 ha         1 8IV       0.112500
     50 H22         19.5100    42.5750    45.9280 ha         1 8IV       0.112000
     51 H23         18.3970    40.4020    45.4240 ha         1 8IV       0.112500
     52 H24         17.4180    39.9930    43.1840 ha         1 8IV       0.117750
     53 H25         16.4040    39.0520    40.9430 ha         1 8IV       0.117750
     54 H26         14.0750    38.2600    41.1100 ha         1 8IV       0.112500
     55 H27         12.2070    39.8840    41.3920 ha         1 8IV       0.112000
     56 H28         12.6930    42.3260    41.5080 ha         1 8IV       0.112500
     57 H29         15.0280    43.1430    41.3390 ha         1 8IV       0.117750
     58 H30         20.8360    43.7340    39.2920 hn         1 8IV       0.414000
     59 H32         18.0180    42.3840    38.6740 hn         1 8IV       0.304500
     60 H33         21.5940    42.1760    35.7570 ho         1 8IV       0.446000
@<TRIPOS>BOND
     1     1     2 1   
     2     1    10 1   
     3     1    27 1   
     4     1    29 1   
     5     2    25 1   
     6     2    30 1   
     7     2    31 1   
     8     3     4 1   
     9     3    25 1   
    10     3    32 1   
    11     3    33 1   
    12     4     5 1   
    13     4     9 1   
    14     4    34 1   
    15     5     6 1   
    16     5    35 1   
    17     5    36 1   
    18     6     7 1   
    19     6    37 1   
    20     6    38 1   
    21     7     8 1   
    22     7    39 1   
    23     7    40 1   
    24     8     9 1   
    25     8    41 1   
    26     8    42 1   
    27     9    43 1   
    28     9    44 1   
    29    10    26 1   
    30    10    45 1   
    31    10    46 1   
    32    11    12 1   
    33    11    26 1   
    34    11    28 2   
    35    12    13 1   
    36    12    19 1   
    37    12    47 1   
    38    13    14 ar  
    39    13    18 ar  
    40    14    15 ar  
    41    14    48 1   
    42    15    16 ar  
    43    15    49 1   
    44    16    17 ar  
    45    16    50 1   
    46    17    18 ar  
    47    17    51 1   
    48    18    52 1   
    49    19    20 ar  
    50    19    24 ar  
    51    20    21 ar  
    52    20    53 1   
    53    21    22 ar  
    54    21    54 1   
    55    22    23 ar  
    56    22    55 1   
    57    23    24 ar  
    58    23    56 1   
    59    24    57 1   
    60    25    58 1   
    61    26    59 1   
    62    27    60 1   
@<TRIPOS>SUBSTRUCTURE
     1 8IV         1 TEMP              0 ****  ****    0 ROOT
