@<TRIPOS>MOLECULE
8IV
   60    62     1     0     0
SMALL
abcg2


@<TRIPOS>ATOM
      1 C02         20.3270    43.2070    37.9160 c3         1 8IV       0.148300
      2 C03         21.4780    42.9560    38.8880 c3         1 8IV       0.130800
      3 C05         22.0910    42.7720    41.2320 c3         1 8IV       0.169800
      4 C06         22.9870    41.5340    41.2060 c6         1 8IV      -0.058700
      5 C07         24.1370    41.7270    42.2110 c6         1 8IV      -0.072900
      6 C08         24.6920    40.3880    42.6800 c6         1 8IV      -0.071400
      7 C09         23.6340    39.6080    43.4750 c6         1 8IV      -0.074400
      8 C10         22.2120    39.9220    42.9870 c6         1 8IV      -0.071400
      9 C11         22.2120    40.2390    41.4970 c6         1 8IV      -0.072900
     10 C12         19.2780    42.0930    37.8980 c3         1 8IV       0.110000
     11 C14         17.9530    41.3310    39.8440 c          1 8IV       0.618100
     12 C16         16.9020    41.8130    40.8480 c3         1 8IV      -0.048100
     13 C17         17.5550    42.5120    42.0250 ca         1 8IV      -0.074300
     14 C18         18.6830    42.0060    42.6690 ca         1 8IV      -0.093250
     15 C19         19.2180    42.6600    43.7710 ca         1 8IV      -0.114500
     16 C20         18.6470    43.8340    44.2400 ca         1 8IV      -0.106500
     17 C21         17.5310    44.3520    43.5980 ca         1 8IV      -0.114500
     18 C22         16.9920    43.6940    42.5010 ca         1 8IV      -0.093250
     19 C23         15.9770    40.6890    41.2620 ca         1 8IV      -0.074300
     20 C24         16.3660    39.6930    42.1540 ca         1 8IV      -0.093250
     21 C25         15.4890    38.6780    42.5070 ca         1 8IV      -0.114500
     22 C26         14.2080    38.6390    41.9700 ca         1 8IV      -0.106500
     23 C27         13.8110    39.6240    41.0780 ca         1 8IV      -0.114500
     24 C28         14.6930    40.6400    40.7290 ca         1 8IV      -0.093250
     25 N04         21.0280    42.7600    40.2470 n7         1 8IV      -0.863400
     26 N13         18.2830    42.2550    38.9300 ns         1 8IV      -0.501900
     27 O01         20.8210    43.2960    36.5960 oh         1 8IV      -0.657000
     28 O15         18.4410    40.2120    39.8940 o          1 8IV      -0.587100
     29 H1          19.8260    44.1460    38.2020 h1         1 8IV       0.020700
     30 H2          22.0110    42.0640    38.5480 h1         1 8IV       0.034700
     31 H3          22.1880    43.7990    38.7990 h1         1 8IV       0.034700
     32 H4          22.7360    43.6620    41.1310 h1         1 8IV       0.027700
     33 H5          21.6220    42.8380    42.2180 h1         1 8IV       0.027700
     34 H6          23.4320    41.4470    40.2080 hc         1 8IV       0.044700
     35 H7          24.9220    42.3390    41.7630 hc         1 8IV       0.045200
     36 H8          23.7790    42.2880    43.0830 hc         1 8IV       0.045200
     37 H9          25.0090    39.8100    41.8070 hc         1 8IV       0.036450
     38 H10         25.5880    40.5340    43.2860 hc         1 8IV       0.036450
     39 H11         23.7170    39.8480    44.5370 hc         1 8IV       0.035200
     40 H12         23.8300    38.5360    43.3890 hc         1 8IV       0.035200
     41 H13         21.8120    40.7790    43.5380 hc         1 8IV       0.036450
     42 H14         21.5420    39.0880    43.2070 hc         1 8IV       0.036450
     43 H15         21.1950    40.3240    41.1090 hc         1 8IV       0.045200
     44 H16         22.6680    39.4030    40.9560 hc         1 8IV       0.045200
     45 H17         18.7840    42.1060    36.9220 h1         1 8IV       0.071700
     46 H18         19.7470    41.1160    38.0110 h1         1 8IV       0.071700
     47 H19         16.2820    42.5600    40.3450 hc         1 8IV       0.055700
     48 H20         19.1600    41.1020    42.3160 ha         1 8IV       0.117750
     49 H21         20.0910    42.2490    44.2630 ha         1 8IV       0.112500
     50 H22         19.0700    44.3420    45.0970 ha         1 8IV       0.112000
     51 H23         17.0770    45.2710    43.9480 ha         1 8IV       0.112500
     52 H24         16.1200    44.1040    42.0060 ha         1 8IV       0.117750
     53 H25         17.3540    39.7060    42.5940 ha         1 8IV       0.117750
     54 H26         15.8070    37.9140    43.2050 ha         1 8IV       0.112500
     55 H27         13.5240    37.8470    42.2490 ha         1 8IV       0.112000
     56 H28         12.8160    39.6070    40.6540 ha         1 8IV       0.112500
     57 H29         14.3730    41.4080    40.0340 ha         1 8IV       0.117750
     58 H30         20.3490    43.4690    40.4930 hn         1 8IV       0.414000
     59 H32         17.7920    43.1360    38.9500 hn         1 8IV       0.304500
     60 H33         21.5070    43.9710    36.5710 ho         1 8IV       0.446000
@<TRIPOS>BOND
     1     1     2 1   
     2     1    10 1   
     3     1    27 1   
     4     1    29 1   
     5     2    25 1   
     6     2    30 1   
     7     2    31 1   
     8     3     4 1   
     9     3    25 1   
    10     3    32 1   
    11     3    33 1   
    12     4     5 1   
    13     4     9 1   
    14     4    34 1   
    15     5     6 1   
    16     5    35 1   
    17     5    36 1   
    18     6     7 1   
    19     6    37 1   
    20     6    38 1   
    21     7     8 1   
    22     7    39 1   
    23     7    40 1   
    24     8     9 1   
    25     8    41 1   
    26     8    42 1   
    27     9    43 1   
    28     9    44 1   
    29    10    26 1   
    30    10    45 1   
    31    10    46 1   
    32    11    12 1   
    33    11    26 1   
    34    11    28 2   
    35    12    13 1   
    36    12    19 1   
    37    12    47 1   
    38    13    14 ar  
    39    13    18 ar  
    40    14    15 ar  
    41    14    48 1   
    42    15    16 ar  
    43    15    49 1   
    44    16    17 ar  
    45    16    50 1   
    46    17    18 ar  
    47    17    51 1   
    48    18    52 1   
    49    19    20 ar  
    50    19    24 ar  
    51    20    21 ar  
    52    20    53 1   
    53    21    22 ar  
    54    21    54 1   
    55    22    23 ar  
    56    22    55 1   
    57    23    24 ar  
    58    23    56 1   
    59    24    57 1   
    60    25    58 1   
    61    26    59 1   
    62    27    60 1   
@<TRIPOS>SUBSTRUCTURE
     1 8IV         1 TEMP              0 ****  ****    0 ROOT
