@<TRIPOS>MOLECULE
8IW
   51    54     1     0     0
SMALL
No Charge or Current Charge


@<TRIPOS>ATOM
      1 CAA         -5.8810    29.8520   -49.1900 ca         1 8IW      -0.196600
      2 CAB         -5.7170    28.5650   -49.7270 ca         1 8IW       0.377900
      3 CAD         -8.0030    28.2860   -49.9830 ca         1 8IW       0.353900
      4 CAE         -8.2920    29.5820   -49.4800 cp         1 8IW      -0.076000
      5 CAF         -7.1880    30.3750   -49.0840 ca         1 8IW      -0.047000
      6 CAG         -4.6500    30.6290   -48.8170 c          1 8IW       0.619700
      7 CAI         -5.6390    31.4350   -46.6420 c3         1 8IW       0.086800
      8 CAJ         -3.6040    32.5440   -47.5950 c3         1 8IW       0.086800
      9 CAL         -9.7000    30.0890   -49.3760 cp         1 8IW      -0.128000
     10 CAM        -10.0860    31.0320   -48.3780 ca         1 8IW       0.369900
     11 CAO        -12.2640    31.0980   -49.1160 ca         1 8IW       0.369500
     12 CAP        -12.0040    30.1600   -50.0890 ca         1 8IW      -0.114800
     13 CAQ        -10.7100    29.6530   -50.2730 ca         1 8IW       0.000000
     14 CAS        -14.2010    30.8460   -50.3430 cc         1 8IW      -0.146100
     15 CAT        -13.2470    29.9580   -50.8190 cd         1 8IW      -0.055400
     16 CAU        -13.4120    29.1250   -52.0320 ca         1 8IW      -0.108800
     17 CAV        -14.2080    29.6220   -53.0850 ca         1 8IW       0.019000
     18 CAW        -14.3910    28.8880   -54.2720 ca         1 8IW      -0.362600
     19 CAX        -13.7860    27.6290   -54.3970 ca         1 8IW       0.268100
     20 CAY        -13.0310    27.1000   -53.3500 ca         1 8IW      -0.283000
     21 CAZ        -12.8470    27.8300   -52.1580 ca         1 8IW       0.233100
     22 NAC         -6.7530    27.7850   -50.1110 nb         1 8IW      -0.668000
     23 NAH         -4.7350    31.6140   -47.8030 n          1 8IW      -0.406800
     24 NAN        -11.3370    31.5440   -48.2520 nb         1 8IW      -0.681000
     25 NAR        -13.5770    31.4920   -49.2550 na         1 8IW      -0.320400
     26 OAK         -3.6090    30.4670   -49.4410 o          1 8IW      -0.588100
     27 CBB        -11.6290    25.9490   -51.1010 c3         1 8IW       0.141900
     28 CBC        -15.2260    29.4830   -55.3690 c          1 8IW       0.605500
     29 OBA        -12.2070    27.2650   -51.0700 os         1 8IW      -0.327100
     30 OBE        -13.9420    26.8940   -55.5260 oh         1 8IW      -0.534100
     31 H1          -4.7250    28.1280   -49.8430 h4         1 8IW       0.035100
     32 H2          -8.8070    27.6210   -50.2930 h4         1 8IW       0.020100
     33 H3          -7.3470    31.3930   -48.7400 ha         1 8IW       0.127000
     34 H4          -5.1030    31.6560   -45.7110 h1         1 8IW       0.042700
     35 H5          -6.4920    32.1200   -46.7260 h1         1 8IW       0.042700
     36 H6          -6.0050    30.4020   -46.5880 h1         1 8IW       0.042700
     37 H7          -3.9030    33.3590   -46.9240 h1         1 8IW       0.042700
     38 H8          -2.7570    32.0050   -47.1520 h1         1 8IW       0.042700
     39 H9          -3.2940    32.9780   -48.5550 h1         1 8IW       0.042700
     40 H10         -9.3590    31.3960   -47.6530 h4         1 8IW       0.017100
     41 H11        -10.4760    28.9830   -51.0930 ha         1 8IW       0.128000
     42 H12        -15.2220    31.0450   -50.6570 h4         1 8IW       0.218000
     43 H13        -14.6630    30.6070   -52.9930 ha         1 8IW       0.116000
     44 H14        -12.6100    26.1080   -53.4750 ha         1 8IW       0.140000
     45 H15        -14.0080    32.1900   -48.6610 hn         1 8IW       0.364000
     46 H16        -11.1680    25.7150   -50.1330 h1         1 8IW       0.049033
     47 H17        -12.3960    25.1900   -51.3030 h1         1 8IW       0.049033
     48 H18        -10.8520    25.8820   -51.8720 h1         1 8IW       0.049033
     49 H21        -15.6620    30.4880   -55.1720 h4         1 8IW       0.000200
     50 H22        -14.5110    27.4390   -56.1240 ho         1 8IW       0.516000
     51 O1         -15.4260    28.9020   -56.4320 o          1 8IW      -0.574100
@<TRIPOS>BOND
     1     1     2 ar  
     2     1     5 ar  
     3     1     6 1   
     4     2    22 ar  
     5     2    31 1   
     6     3     4 ar  
     7     3    22 ar  
     8     3    32 1   
     9     4     5 ar  
    10     4     9 1   
    11     5    33 1   
    12     6    23 1   
    13     6    26 2   
    14     7    23 1   
    15     7    34 1   
    16     7    35 1   
    17     7    36 1   
    18     8    23 1   
    19     8    37 1   
    20     8    38 1   
    21     8    39 1   
    22     9    10 ar  
    23     9    13 ar  
    24    10    24 ar  
    25    10    40 1   
    26    11    12 ar  
    27    11    24 ar  
    28    11    25 1   
    29    12    13 ar  
    30    12    15 1   
    31    13    41 1   
    32    14    15 2   
    33    14    25 1   
    34    14    42 1   
    35    15    16 1   
    36    16    17 ar  
    37    16    21 ar  
    38    17    18 ar  
    39    17    43 1   
    40    18    19 ar  
    41    18    28 1   
    42    19    20 ar  
    43    19    30 1   
    44    20    21 ar  
    45    20    44 1   
    46    21    29 1   
    47    25    45 1   
    48    27    29 1   
    49    27    46 1   
    50    27    47 1   
    51    27    48 1   
    52    28    49 1   
    53    28    51 2   
    54    30    50 1   
@<TRIPOS>SUBSTRUCTURE
     1 8IW         1 TEMP              0 ****  ****    0 ROOT
