@<TRIPOS>MOLECULE
8IW
   51    54     1     0     0
SMALL
bcc


@<TRIPOS>ATOM
      1 CAA         -5.9160    29.9900   -49.1710 ca         1 8IW      -0.261900
      2 CAB         -5.7260    28.6750   -49.5780 ca         1 8IW       0.443200
      3 CAD         -7.9640    28.3230   -49.7730 ca         1 8IW       0.419200
      4 CAE         -8.2810    29.6330   -49.4120 cp         1 8IW      -0.141300
      5 CAF         -7.2150    30.4730   -49.1010 ca         1 8IW      -0.065000
      6 CAG         -4.7250    30.8700   -48.9560 c          1 8IW       0.686700
      7 CAI         -5.4950    31.3640   -46.6530 c3         1 8IW       0.086800
      8 CAJ         -3.6350    32.5880   -47.6600 c3         1 8IW       0.086800
      9 CAL         -9.6790    30.0870   -49.3590 cp         1 8IW      -0.193300
     10 CAM        -10.0980    30.9640   -48.3410 ca         1 8IW       0.435200
     11 CAO        -12.1980    30.9840   -49.1060 ca         1 8IW       0.434800
     12 CAP        -11.9240    30.0910   -50.1660 ca         1 8IW      -0.180100
     13 CAQ        -10.6130    29.6490   -50.2910 ca         1 8IW      -0.018000
     14 CAS        -14.0800    30.6740   -50.2380 cc         1 8IW      -0.096100
     15 CAT        -13.1500    29.9030   -50.8830 cd         1 8IW      -0.055400
     16 CAU        -13.3910    29.1170   -52.0970 ca         1 8IW      -0.108800
     17 CAV        -14.0370    29.6650   -53.1820 ca         1 8IW       0.001000
     18 CAW        -14.3000    28.9390   -54.3510 ca         1 8IW      -0.362600
     19 CAX        -13.8710    27.6000   -54.4300 ca         1 8IW       0.268100
     20 CAY        -13.2200    27.0200   -53.3460 ca         1 8IW      -0.301000
     21 CAZ        -12.9950    27.7590   -52.1920 ca         1 8IW       0.233100
     22 NAC         -6.7280    27.8550   -49.8590 nb         1 8IW      -0.668000
     23 NAH         -4.6890    31.6090   -47.8320 n          1 8IW      -0.473800
     24 NAN        -11.3310    31.4200   -48.2070 nb         1 8IW      -0.681000
     25 NAR        -13.5120    31.3210   -49.1780 na         1 8IW      -0.270100
     26 OAK         -3.8540    30.9100   -49.8150 o          1 8IW      -0.588100
     27 CBB        -11.9440    25.9160   -51.1170 c3         1 8IW       0.118700
     28 CBC        -14.9780    29.5690   -55.4570 c          1 8IW       0.605500
     29 OBA        -12.4140    27.2530   -51.1060 os         1 8IW      -0.303900
     30 OBE        -14.0700    26.8620   -55.5170 oh         1 8IW      -0.495100
     31 H1          -4.7240    28.2680   -49.6650 h4         1 8IW       0.035100
     32 H2          -8.7580    27.6160   -49.9930 h4         1 8IW       0.020100
     33 H3          -7.3950    31.5070   -48.8300 ha         1 8IW       0.145000
     34 H4          -4.8420    31.2920   -45.7810 h1         1 8IW       0.042700
     35 H5          -6.2060    32.1730   -46.4790 h1         1 8IW       0.042700
     36 H6          -6.0420    30.4290   -46.7260 h1         1 8IW       0.042700
     37 H7          -4.0120    33.4100   -47.0520 h1         1 8IW       0.042700
     38 H8          -2.7660    32.1600   -47.1540 h1         1 8IW       0.042700
     39 H9          -3.3170    32.9890   -48.6180 h1         1 8IW       0.042700
     40 H10         -9.3860    31.2940   -47.5920 h4         1 8IW       0.017100
     41 H11        -10.3160    29.0000   -51.1040 ha         1 8IW       0.146000
     42 H12        -15.1280    30.8010   -50.4610 h4         1 8IW       0.168000
     43 H13        -14.3460    30.7040   -53.1390 ha         1 8IW       0.134000
     44 H14        -12.9130    25.9850   -53.4260 ha         1 8IW       0.158000
     45 H15        -13.9930    31.9380   -48.5430 hn         1 8IW       0.313700
     46 H16        -11.4930    25.7460   -50.1430 h1         1 8IW       0.049033
     47 H17        -12.7590    25.2030   -51.2610 h1         1 8IW       0.049033
     48 H18        -11.1890    25.7600   -51.8910 h1         1 8IW       0.049033
     49 H21        -15.2710    30.6200   -55.3020 h4         1 8IW       0.000200
     50 H22        -14.5400    27.4100   -56.1810 ho         1 8IW       0.477000
     51 O1         -15.2320    29.0100   -56.5170 o          1 8IW      -0.574100
@<TRIPOS>BOND
     1     1     2 ar  
     2     1     5 ar  
     3     1     6 1   
     4     2    22 ar  
     5     2    31 1   
     6     3     4 ar  
     7     3    22 ar  
     8     3    32 1   
     9     4     5 ar  
    10     4     9 1   
    11     5    33 1   
    12     6    23 1   
    13     6    26 2   
    14     7    23 1   
    15     7    34 1   
    16     7    35 1   
    17     7    36 1   
    18     8    23 1   
    19     8    37 1   
    20     8    38 1   
    21     8    39 1   
    22     9    10 ar  
    23     9    13 ar  
    24    10    24 ar  
    25    10    40 1   
    26    11    12 ar  
    27    11    24 ar  
    28    11    25 1   
    29    12    13 ar  
    30    12    15 1   
    31    13    41 1   
    32    14    15 2   
    33    14    25 1   
    34    14    42 1   
    35    15    16 1   
    36    16    17 ar  
    37    16    21 ar  
    38    17    18 ar  
    39    17    43 1   
    40    18    19 ar  
    41    18    28 1   
    42    19    20 ar  
    43    19    30 1   
    44    20    21 ar  
    45    20    44 1   
    46    21    29 1   
    47    25    45 1   
    48    27    29 1   
    49    27    46 1   
    50    27    47 1   
    51    27    48 1   
    52    28    49 1   
    53    28    51 2   
    54    30    50 1   
@<TRIPOS>SUBSTRUCTURE
     1 8IW         1 TEMP              0 ****  ****    0 ROOT
