@<TRIPOS>MOLECULE
8IX
   54    57     1     0     0
SMALL
bcc


@<TRIPOS>ATOM
      1 C10        122.1850    95.8280    84.3790 c6         1 8IX      -0.050000
      2 C13        123.4180    96.6870    81.8510 c6         1 8IX      -0.059900
      3 C15        121.9490    97.2210    83.7860 c6         1 8IX      -0.055400
      4 C17        124.3800    97.7360    83.8950 c6         1 8IX      -0.058400
      5 C20        127.3380    97.7440    89.9240 ca         1 8IX      -0.032300
      6 C21        128.2730    96.8270    90.4000 ca         1 8IX      -0.108500
      7 C22        129.2410    97.2080    91.3190 ca         1 8IX      -0.135500
      8 C24        128.3580    99.4400    91.3160 ca         1 8IX      -0.135500
      9 C02        127.4380    98.5530    87.0200 c          1 8IX       0.928600
     10 C03        126.8460    97.1990    87.4930 c3         1 8IX      -0.035300
     11 C05        125.9240    96.4780    85.3510 c          1 8IX       0.669100
     12 C06        124.6610    96.3460    84.5000 c6         1 8IX      -0.124000
     13 C07        124.9000    95.3530    83.3550 c6         1 8IX      -0.055400
     14 C08        123.6780    95.3010    82.4390 c6         1 8IX      -0.060700
     15 C09        122.4570    94.8490    83.2360 c6         1 8IX      -0.059900
     16 C11        120.9750    95.3850    85.1900 c3         1 8IX      -0.078100
     17 C12        123.4200    95.8950    85.2850 c6         1 8IX      -0.058400
     18 C14        123.1560    97.6970    82.9730 c6         1 8IX      -0.050000
     19 C16        122.8980    99.0830    82.3990 c3         1 8IX      -0.078100
     20 C19        126.3010    97.3270    88.9220 c3         1 8IX      -0.031100
     21 C23        129.2870    98.5180    91.7800 ca         1 8IX      -0.146000
     22 C25        127.3940    99.0520    90.3950 ca         1 8IX      -0.108500
     23 N04        125.7530    96.7530    86.6530 ns         1 8IX      -0.530900
     24 O18        127.0420    96.3760    84.8570 o          1 8IX      -0.609100
     25 H1         124.2750    97.0130    81.2520 hc         1 8IX       0.031450
     26 H2         122.5530    96.6530    81.1800 hc         1 8IX       0.031450
     27 H3         121.7440    97.9360    84.5930 hc         1 8IX       0.032200
     28 H4         121.0560    97.2040    83.1490 hc         1 8IX       0.032200
     29 H5         125.2540    98.0770    83.3300 hc         1 8IX       0.053950
     30 H6         124.2150    98.4660    84.6950 hc         1 8IX       0.053950
     31 H7         128.2400    95.8010    90.0500 ha         1 8IX       0.129000
     32 H8         129.9580    96.4810    91.6780 ha         1 8IX       0.112000
     33 H9         128.3830   100.4620    91.6730 ha         1 8IX       0.112000
     34 H10        127.6320    96.4400    87.4870 h1         1 8IX       0.062700
     35 H11        125.1040    94.3570    83.7630 hc         1 8IX       0.051700
     36 H12        125.7810    95.6480    82.7820 hc         1 8IX       0.051700
     37 H13        123.8720    94.5900    81.6300 hc         1 8IX       0.037700
     38 H14        121.5780    94.7920    82.5840 hc         1 8IX       0.031450
     39 H15        122.6180    93.8420    83.6380 hc         1 8IX       0.031450
     40 H16        120.7770    96.0770    86.0110 hc         1 8IX       0.028700
     41 H17        120.0790    95.3430    84.5650 hc         1 8IX       0.028700
     42 H18        121.1280    94.3920    85.6180 hc         1 8IX       0.028700
     43 H19        123.1860    96.5940    86.0960 hc         1 8IX       0.053950
     44 H20        123.5990    94.9170    85.7440 hc         1 8IX       0.053950
     45 H21        122.7060    99.8100    83.1920 hc         1 8IX       0.028700
     46 H22        123.7550    99.4370    81.8220 hc         1 8IX       0.028700
     47 H23        122.0290    99.0770    81.7370 hc         1 8IX       0.028700
     48 H24        125.4780    98.0480    88.9230 hc         1 8IX       0.028700
     49 H25        125.8740    96.3630    89.2170 hc         1 8IX       0.028700
     50 H26        130.0400    98.8160    92.4990 ha         1 8IX       0.108000
     51 H27        126.6740    99.7780    90.0340 ha         1 8IX       0.129000
     52 H28        124.8220    96.9660    86.9720 hn         1 8IX       0.288500
     53 O01        126.6200    99.3930    86.5990 o          1 8IX      -0.825300
     54 O26        128.6680    98.6870    87.1490 o          1 8IX      -0.825300
@<TRIPOS>BOND
     1     1     3 1   
     2     1    15 1   
     3     1    16 1   
     4     1    17 1   
     5     2    14 1   
     6     2    18 1   
     7     2    25 1   
     8     2    26 1   
     9     3    18 1   
    10     3    27 1   
    11     3    28 1   
    12     4    12 1   
    13     4    18 1   
    14     4    29 1   
    15     4    30 1   
    16     5     6 ar  
    17     5    20 1   
    18     5    22 ar  
    19     6     7 ar  
    20     6    31 1   
    21     7    21 ar  
    22     7    32 1   
    23     8    21 ar  
    24     8    22 ar  
    25     8    33 1   
    26     9    10 1   
    27     9    53 1   
    28     9    54 1   
    29    10    20 1   
    30    10    23 1   
    31    10    34 1   
    32    11    12 1   
    33    11    23 1   
    34    11    24 2   
    35    12    13 1   
    36    12    17 1   
    37    13    14 1   
    38    13    35 1   
    39    13    36 1   
    40    14    15 1   
    41    14    37 1   
    42    15    38 1   
    43    15    39 1   
    44    16    40 1   
    45    16    41 1   
    46    16    42 1   
    47    17    43 1   
    48    17    44 1   
    49    18    19 1   
    50    19    45 1   
    51    19    46 1   
    52    19    47 1   
    53    20    48 1   
    54    20    49 1   
    55    21    50 1   
    56    22    51 1   
    57    23    52 1   
@<TRIPOS>SUBSTRUCTURE
     1 8IX         1 TEMP              0 ****  ****    0 ROOT
