@<TRIPOS>MOLECULE
8IX
   54    57     1     0     0
SMALL
No Charge or Current Charge


@<TRIPOS>ATOM
      1 C10        121.9790    96.7530    84.3030 c6         1 8IX      -0.050000
      2 C13        123.5820    95.5910    82.0540 c6         1 8IX      -0.059900
      3 C15        122.1460    97.5120    82.9330 c6         1 8IX      -0.055400
      4 C17        124.6630    97.7170    82.9180 c6         1 8IX      -0.058400
      5 C20        127.9460    97.1420    89.7850 ca         1 8IX      -0.032300
      6 C21        129.2520    97.3290    89.2910 ca         1 8IX      -0.090500
      7 C22        130.3040    97.6470    90.1670 ca         1 8IX      -0.117500
      8 C24        128.7560    97.5940    92.0430 ca         1 8IX      -0.117500
      9 C02        125.7140    99.1260    88.9250 c          1 8IX       0.718000
     10 C03        126.3330    98.0230    88.0130 c3         1 8IX      -0.035300
     11 C05        125.7010    97.0570    85.7440 c          1 8IX       0.602100
     12 C06        124.5340    96.6770    84.7910 c6         1 8IX      -0.124000
     13 C07        124.5050    95.1610    84.4660 c6         1 8IX      -0.055400
     14 C08        123.3890    94.8440    83.4220 c6         1 8IX      -0.060700
     15 C09        122.0150    95.2260    84.0200 c6         1 8IX      -0.059900
     16 C11        120.6070    97.1350    84.9310 c3         1 8IX      -0.078100
     17 C12        123.1230    97.0940    85.3220 c6         1 8IX      -0.058400
     18 C14        123.4530    97.1550    82.1460 c6         1 8IX      -0.050000
     19 C16        123.4150    97.7830    80.7240 c3         1 8IX      -0.078100
     20 C19        126.8100    96.7970    88.8310 c3         1 8IX      -0.031100
     21 C23        130.0560    97.7800    91.5440 ca         1 8IX      -0.128000
     22 C25        127.7040    97.2760    91.1660 ca         1 8IX      -0.090500
     23 N04        125.3710    97.6300    86.9570 ns         1 8IX      -0.463900
     24 O18        126.8660    96.8590    85.4240 o          1 8IX      -0.609100
     25 H1         124.5550    95.3190    81.6210 hc         1 8IX       0.031450
     26 H2         122.8310    95.2120    81.3460 hc         1 8IX       0.031450
     27 H3         122.1030    98.5970    83.1050 hc         1 8IX       0.032200
     28 H4         121.2790    97.2830    82.2970 hc         1 8IX       0.032200
     29 H5         125.6120    97.4930    82.4110 hc         1 8IX       0.053950
     30 H6         124.5950    98.8040    83.0620 hc         1 8IX       0.053950
     31 H7         129.4510    97.2280    88.2260 ha         1 8IX       0.111000
     32 H8         131.3100    97.7910    89.7800 ha         1 8IX       0.094000
     33 H9         128.5630    97.6970    93.1080 ha         1 8IX       0.094000
     34 H10        127.2080    98.4670    87.5220 h1         1 8IX       0.062700
     35 H11        124.3480    94.5760    85.3840 hc         1 8IX       0.051700
     36 H12        125.4770    94.8490    84.0620 hc         1 8IX       0.051700
     37 H13        123.3970    93.7620    83.2290 hc         1 8IX       0.037700
     38 H14        121.2110    94.9430    83.3260 hc         1 8IX       0.031450
     39 H15        121.8370    94.6590    84.9450 hc         1 8IX       0.031450
     40 H16        120.5500    98.2100    85.1400 hc         1 8IX       0.028700
     41 H17        119.7750    96.8850    84.2610 hc         1 8IX       0.028700
     42 H18        120.4370    96.6060    85.8770 hc         1 8IX       0.028700
     43 H19        123.1090    98.1750    85.5230 hc         1 8IX       0.053950
     44 H20        122.9200    96.5940    86.2800 hc         1 8IX       0.053950
     45 H21        123.3410    98.8760    80.7710 hc         1 8IX       0.028700
     46 H22        124.3170    97.5350    80.1520 hc         1 8IX       0.028700
     47 H23        122.5510    97.4190    80.1540 hc         1 8IX       0.028700
     48 H24        125.9590    96.3720    89.3780 hc         1 8IX       0.028700
     49 H25        127.1470    96.0140    88.1420 hc         1 8IX       0.028700
     50 H26        130.8700    98.0260    92.2220 ha         1 8IX       0.090000
     51 H27        126.7000    97.1360    91.5610 ha         1 8IX       0.111000
     52 H28        124.3850    97.7660    87.1430 hn         1 8IX       0.288500
     53 O01        124.6270    98.9090    89.4460 o          1 8IX      -0.720000
     54 O26        126.2790   100.2100    88.9850 o          1 8IX      -0.720000
@<TRIPOS>BOND
     1     1     3 1   
     2     1    15 1   
     3     1    16 1   
     4     1    17 1   
     5     2    14 1   
     6     2    18 1   
     7     2    25 1   
     8     2    26 1   
     9     3    18 1   
    10     3    27 1   
    11     3    28 1   
    12     4    12 1   
    13     4    18 1   
    14     4    29 1   
    15     4    30 1   
    16     5     6 ar  
    17     5    20 1   
    18     5    22 ar  
    19     6     7 ar  
    20     6    31 1   
    21     7    21 ar  
    22     7    32 1   
    23     8    21 ar  
    24     8    22 ar  
    25     8    33 1   
    26     9    10 1   
    27     9    53 1   
    28     9    54 1   
    29    10    20 1   
    30    10    23 1   
    31    10    34 1   
    32    11    12 1   
    33    11    23 1   
    34    11    24 2   
    35    12    13 1   
    36    12    17 1   
    37    13    14 1   
    38    13    35 1   
    39    13    36 1   
    40    14    15 1   
    41    14    37 1   
    42    15    38 1   
    43    15    39 1   
    44    16    40 1   
    45    16    41 1   
    46    16    42 1   
    47    17    43 1   
    48    17    44 1   
    49    18    19 1   
    50    19    45 1   
    51    19    46 1   
    52    19    47 1   
    53    20    48 1   
    54    20    49 1   
    55    21    50 1   
    56    22    51 1   
    57    23    52 1   
@<TRIPOS>SUBSTRUCTURE
     1 8IX         1 TEMP              0 ****  ****    0 ROOT
