@<TRIPOS>MOLECULE
8IZ
   32    33     1     0     0
SMALL
abcg2


@<TRIPOS>ATOM
      1 C10         74.7650   -26.9590    -9.4480 cc         1 8IZ      -0.277400
      2 C02         72.8770   -28.2190    -8.2670 c5         1 8IZ       0.154300
      3 C03         73.7930   -26.9870    -8.3110 c5         1 8IZ       0.230500
      4 C05         73.5760   -27.4190    -6.0880 c5         1 8IZ       0.124300
      5 C06         74.3090   -28.0450    -4.9300 c3         1 8IZ       0.169600
      6 C08         72.5670   -28.3780    -6.7560 c5         1 8IZ       0.093300
      7 C11         74.4440   -26.2340   -10.6570 c          1 8IZ       0.596200
      8 C14         76.6450   -26.9280   -11.5580 c          1 8IZ       0.612000
      9 C18         75.9530   -27.5930    -9.3770 cd         1 8IZ       0.024600
     10 N13         75.4320   -26.2940   -11.6260 ns         1 8IZ      -0.468500
     11 N16         76.8760   -27.5950   -10.3780 n          1 8IZ      -0.310000
     12 O01         71.7690   -28.0190    -9.0880 oh         1 8IZ      -0.675000
     13 O04         74.4990   -27.0470    -7.0940 os         1 8IZ      -0.439000
     14 O07         75.1710   -27.0960    -4.3520 oh         1 8IZ      -0.701000
     15 O09         71.2290   -28.0520    -6.4950 oh         1 8IZ      -0.690000
     16 O12         73.4220   -25.6050   -10.8630 o          1 8IZ      -0.512000
     17 O15         77.4520   -26.9030   -12.4630 o          1 8IZ      -0.553000
     18 H1          73.4610   -29.0920    -8.5880 h1         1 8IZ       0.034700
     19 H2          73.1590   -26.0880    -8.3530 h1         1 8IZ       0.094700
     20 H3          73.0230   -26.5310    -5.7460 h1         1 8IZ       0.074700
     21 H4          73.5560   -28.4050    -4.2160 h1         1 8IZ       0.019200
     22 H5          74.8530   -28.9300    -5.2910 h1         1 8IZ       0.019200
     23 H6          72.7780   -29.4110    -6.4520 h1         1 8IZ       0.034700
     24 H7          78.1720   -28.7580    -9.2510 h1         1 8IZ       0.055700
     25 H8          78.2590   -29.0570   -10.9900 h1         1 8IZ       0.055700
     26 H9          78.9780   -27.5890   -10.3040 h1         1 8IZ       0.055700
     27 H10         76.2420   -28.1410    -8.4910 h4         1 8IZ       0.215000
     28 H11         75.2500   -25.7970   -12.4900 hn         1 8IZ       0.345500
     29 H12         71.2230   -28.8110    -9.0710 ho         1 8IZ       0.511000
     30 H13         75.6320   -27.5150    -3.6200 ho         1 8IZ       0.504000
     31 H14         71.0270   -28.3210    -5.5940 ho         1 8IZ       0.504000
     32 C17         78.1470   -28.2880   -10.2290 c3         1 8IZ       0.095300
@<TRIPOS>BOND
     1     1     3 1   
     2     1     7 1   
     3     1     9 2   
     4     2     3 1   
     5     2     6 1   
     6     2    12 1   
     7     2    18 1   
     8     3    13 1   
     9     3    19 1   
    10     4     5 1   
    11     4     6 1   
    12     4    13 1   
    13     4    20 1   
    14     5    14 1   
    15     5    21 1   
    16     5    22 1   
    17     6    15 1   
    18     6    23 1   
    19     7    10 1   
    20     7    16 2   
    21     8    10 1   
    22     8    11 1   
    23     8    17 2   
    24     9    11 1   
    25     9    27 1   
    26    10    28 1   
    27    11    32 1   
    28    12    29 1   
    29    14    30 1   
    30    15    31 1   
    31    24    32 1   
    32    25    32 1   
    33    26    32 1   
@<TRIPOS>SUBSTRUCTURE
     1 8IZ         1 TEMP              0 ****  ****    0 ROOT
