@<TRIPOS>MOLECULE
8IZ
   32    33     1     0     0
SMALL
No Charge or Current Charge


@<TRIPOS>ATOM
      1 C10         74.6000   -26.9850    -9.4190 cc         1 8IZ      -0.277400
      2 C02         72.7500   -28.2470    -8.1670 c5         1 8IZ       0.154300
      3 C03         73.5070   -26.8870    -8.3720 c5         1 8IZ       0.230500
      4 C05         73.5780   -27.4720    -6.0700 c5         1 8IZ       0.124300
      5 C06         74.6770   -28.5350    -5.7540 c3         1 8IZ       0.169600
      6 C08         72.2820   -28.0860    -6.6930 c5         1 8IZ       0.093300
      7 C11         74.2990   -26.7600   -10.8450 c          1 8IZ       0.596200
      8 C14         76.6490   -27.1890   -11.3590 c          1 8IZ       0.612000
      9 C18         75.8970   -27.2800    -9.0410 cd         1 8IZ       0.024600
     10 N13         75.3650   -26.8900   -11.6770 ns         1 8IZ      -0.468500
     11 N16         76.9110   -27.3850    -9.9910 n          1 8IZ      -0.310000
     12 O01         71.6140   -28.4230    -9.0160 oh         1 8IZ      -0.675000
     13 O04         74.0540   -26.5320    -7.0750 os         1 8IZ      -0.439000
     14 O07         75.7870   -27.9480    -5.0530 oh         1 8IZ      -0.701000
     15 O09         71.1360   -27.2140    -6.6070 oh         1 8IZ      -0.690000
     16 O12         73.1980   -26.4700   -11.2790 o          1 8IZ      -0.512000
     17 O15         77.5050   -27.2740   -12.2240 o          1 8IZ      -0.553000
     18 H1          73.4390   -29.0960    -8.2750 h1         1 8IZ       0.034700
     19 H2          72.7920   -26.1000    -8.6510 h1         1 8IZ       0.094700
     20 H3          73.3550   -26.9270    -5.1430 h1         1 8IZ       0.074700
     21 H4          74.2260   -29.3220    -5.1360 h1         1 8IZ       0.019200
     22 H5          75.0210   -29.0060    -6.6840 h1         1 8IZ       0.019200
     23 H6          72.0460   -29.0600    -6.2420 h1         1 8IZ       0.034700
     24 H7          78.3610   -27.8340    -8.4910 h1         1 8IZ       0.055700
     25 H8          78.6200   -28.6380   -10.0630 h1         1 8IZ       0.055700
     26 H9          78.9700   -26.8940    -9.8800 h1         1 8IZ       0.055700
     27 H10         76.2230   -27.4430    -8.0170 h4         1 8IZ       0.215000
     28 H11         75.1790   -26.7430   -12.6560 hn         1 8IZ       0.345500
     29 H12         70.8890   -27.9710    -8.5170 ho         1 8IZ       0.511000
     30 H13         76.3980   -28.6830    -4.8110 ho         1 8IZ       0.504000
     31 H14         70.9130   -27.1080    -5.6510 ho         1 8IZ       0.504000
     32 C17         78.2970   -27.7070    -9.5790 c3         1 8IZ       0.095300
@<TRIPOS>BOND
     1     1     3 1   
     2     1     7 1   
     3     1     9 2   
     4     2     3 1   
     5     2     6 1   
     6     2    12 1   
     7     2    18 1   
     8     3    13 1   
     9     3    19 1   
    10     4     5 1   
    11     4     6 1   
    12     4    13 1   
    13     4    20 1   
    14     5    14 1   
    15     5    21 1   
    16     5    22 1   
    17     6    15 1   
    18     6    23 1   
    19     7    10 1   
    20     7    16 2   
    21     8    10 1   
    22     8    11 1   
    23     8    17 2   
    24     9    11 1   
    25     9    27 1   
    26    10    28 1   
    27    11    32 1   
    28    12    29 1   
    29    14    30 1   
    30    15    31 1   
    31    24    32 1   
    32    25    32 1   
    33    26    32 1   
@<TRIPOS>SUBSTRUCTURE
     1 8IZ         1 TEMP              0 ****  ****    0 ROOT
