@<TRIPOS>MOLECULE
8J0
   88    93     1     0     0
SMALL
abcg2


@<TRIPOS>ATOM
      1 C10          7.9990    -0.5690    -1.0900 c6         1 8J0      -0.073200
      2 O02          6.4150    -2.4550     1.4900 oh         1 8J0      -0.656000
      3 C03          7.4810    -1.5360     1.6460 c6         1 8J0       0.211500
      4 C04          7.0560    -0.1620     1.1820 ce         1 8J0      -0.125200
      5 C39          6.9100     0.8440     2.0430 c2         1 8J0      -0.295000
      6 C02          8.6530    -2.0490     0.8220 c6         1 8J0      -0.065400
      7 C01          8.3720    -1.9930    -0.6720 c6         1 8J0       0.176300
      8 O01          9.5310    -2.4460    -1.3400 oh         1 8J0      -0.662000
      9 C05          6.8510    -0.0390    -0.2730 ce         1 8J0      -0.064200
     10 C06          5.7480     0.4690    -0.8490 cf         1 8J0      -0.164000
     11 C07          4.5500     0.9130    -0.1610 cf         1 8J0      -0.191000
     12 C08          3.5110     1.5640    -0.7080 c2         1 8J0      -0.079400
     13 C09          3.4280     2.0300    -2.1360 c6         1 8J0      -0.042200
     14 C11          2.1260     1.5890    -2.8130 c6         1 8J0      -0.071400
     15 C12          0.8830     1.9170    -1.9850 c6         1 8J0      -0.062400
     16 C13          0.9910     1.3590    -0.5630 c5         1 8J0      -0.035000
     17 C18          1.0200    -0.1730    -0.5810 c3         1 8J0      -0.080100
     18 C14          2.2860     1.9330     0.0660 c5         1 8J0      -0.035500
     19 C15          2.1690     1.5820     1.5410 c5         1 8J0      -0.070400
     20 C16          0.6600     1.7040     1.8260 c5         1 8J0      -0.079400
     21 C17         -0.0540     1.8720     0.4580 c5         1 8J0      -0.055700
     22 C20         -1.4450     1.2260     0.4470 c3         1 8J0      -0.047700
     23 C21         -2.1690     1.3620    -0.8880 c3         1 8J0      -0.089100
     24 C22         -2.3100     1.8370     1.5700 c3         1 8J0       0.003700
     25 C23         -3.5570     1.1060     1.7600 c1         1 8J0      -0.117100
     26 C24         -4.5610     0.4540     1.8880 c1         1 8J0      -0.183100
     27 C25         -5.7880    -0.3440     2.0210 c3         1 8J0       0.267400
     28 O03         -6.6790     0.2480     2.9420 oh         1 8J0      -0.647000
     29 C29         -6.4280    -0.6420     0.6480 c6         1 8J0      -0.072000
     30 C34         -6.8380     0.6440    -0.0800 c6         1 8J0      -0.063400
     31 C37         -5.4240    -1.4110    -0.2230 c6         1 8J0      -0.063400
     32 C35         -6.0400    -1.7480    -1.5820 c6         1 8J0      -0.058367
     33 C38         -6.4360    -0.4520    -2.2910 c6         1 8J0      -0.068067
     34 C33         -7.4550     0.3070    -1.4400 c6         1 8J0      -0.058367
     35 C32         -8.6970    -0.5620    -1.2300 c6         1 8J0      -0.068067
     36 C36         -7.2820    -2.6180    -1.3790 c6         1 8J0      -0.068067
     37 C31         -8.2970    -1.8590    -0.5220 c6         1 8J0      -0.058367
     38 C30         -7.6750    -1.5190     0.8360 c6         1 8J0      -0.063400
     39 H1           8.8800     0.0690    -0.9450 hc         1 8J0       0.051700
     40 H2           7.7500    -0.5400    -2.1550 hc         1 8J0       0.051700
     41 H3           5.6520    -2.1160     1.9700 ho         1 8J0       0.444000
     42 H4           7.7890    -1.4750     2.6990 h1         1 8J0       0.036700
     43 H5           7.0900     0.7060     3.1030 ha         1 8J0       0.168500
     44 H6           6.6190     1.8360     1.7220 ha         1 8J0       0.168500
     45 H7           9.5280    -1.4320     1.0510 hc         1 8J0       0.062200
     46 H8           8.8950    -3.0710     1.1260 hc         1 8J0       0.062200
     47 H9           7.5220    -2.6500    -0.8990 h1         1 8J0       0.049700
     48 H10          9.3360    -2.4940    -2.2810 ho         1 8J0       0.442000
     49 H11          5.7410     0.5110    -1.9330 ha         1 8J0       0.170000
     50 H12          4.5000     0.6770     0.8960 ha         1 8J0       0.174000
     51 H13          3.4660     3.1260    -2.1350 hc         1 8J0       0.046200
     52 H14          4.2820     1.6990    -2.7290 hc         1 8J0       0.046200
     53 H15          2.0500     2.0710    -3.7910 hc         1 8J0       0.041200
     54 H16          2.1680     0.5150    -3.0080 hc         1 8J0       0.041200
     55 H17          0.7610     3.0060    -1.9280 hc         1 8J0       0.040700
     56 H18          0.0010     1.5360    -2.5010 hc         1 8J0       0.040700
     57 H19          1.9430    -0.5600    -1.0130 hc         1 8J0       0.035700
     58 H20          0.9370    -0.5950     0.4220 hc         1 8J0       0.035700
     59 H21          0.1920    -0.5750    -1.1670 hc         1 8J0       0.035700
     60 H22          2.1840     3.0270    -0.0190 hc         1 8J0       0.053700
     61 H23          2.5120     0.5630     1.7290 hc         1 8J0       0.044700
     62 H24          2.7720     2.2380     2.1700 hc         1 8J0       0.044700
     63 H25          0.2940     0.8100     2.3380 hc         1 8J0       0.042200
     64 H26          0.4470     2.5450     2.4860 hc         1 8J0       0.042200
     65 H27         -0.1900     2.9450     0.2630 hc         1 8J0       0.045700
     66 H28         -1.3280     0.1610     0.6790 hc         1 8J0       0.055700
     67 H29         -1.7180     0.7420    -1.6610 hc         1 8J0       0.036367
     68 H30         -3.2130     1.0550    -0.8010 hc         1 8J0       0.036367
     69 H31         -2.1550     2.3970    -1.2360 hc         1 8J0       0.036367
     70 H32         -1.7630     1.8450     2.5150 hc         1 8J0       0.058700
     71 H33         -2.5250     2.8840     1.3320 hc         1 8J0       0.058700
     72 H34         -5.5160    -1.3100     2.4640 h1         1 8J0       0.084700
     73 H35         -6.9080     1.1290     2.6280 ho         1 8J0       0.445000
     74 H36         -7.5700     1.2040     0.5140 hc         1 8J0       0.044033
     75 H37         -5.9700     1.2990    -0.2150 hc         1 8J0       0.044033
     76 H38         -4.5140    -0.8200    -0.3650 hc         1 8J0       0.044033
     77 H39         -5.1200    -2.3300     0.2920 hc         1 8J0       0.044033
     78 H40         -5.3060    -2.2900    -2.1850 hc         1 8J0       0.048700
     79 H41         -5.5500     0.1700    -2.4640 hc         1 8J0       0.039533
     80 H42         -6.8610    -0.6750    -3.2750 hc         1 8J0       0.039533
     81 H43         -7.7380     1.2360    -1.9440 hc         1 8J0       0.048700
     82 H44         -9.4360    -0.0210    -0.6300 hc         1 8J0       0.039533
     83 H45         -9.1690    -0.7860    -2.1920 hc         1 8J0       0.039533
     84 H46         -7.7240    -2.8770    -2.3460 hc         1 8J0       0.039533
     85 H47         -7.0080    -3.5600    -0.8940 hc         1 8J0       0.039533
     86 H48         -9.1830    -2.4800    -0.3640 hc         1 8J0       0.048700
     87 H49         -7.4040    -2.4390     1.3660 hc         1 8J0       0.044033
     88 H50         -8.4110    -1.0010     1.4560 hc         1 8J0       0.044033
@<TRIPOS>BOND
     1     1     7 1   
     2     1     9 1   
     3     1    39 1   
     4     1    40 1   
     5     2     3 1   
     6     2    41 1   
     7     3     4 1   
     8     3     6 1   
     9     3    42 1   
    10     4     5 2   
    11     4     9 1   
    12     5    43 1   
    13     5    44 1   
    14     6     7 1   
    15     6    45 1   
    16     6    46 1   
    17     7     8 1   
    18     7    47 1   
    19     8    48 1   
    20     9    10 2   
    21    10    11 1   
    22    10    49 1   
    23    11    12 2   
    24    11    50 1   
    25    12    13 1   
    26    12    18 1   
    27    13    14 1   
    28    13    51 1   
    29    13    52 1   
    30    14    15 1   
    31    14    53 1   
    32    14    54 1   
    33    15    16 1   
    34    15    55 1   
    35    15    56 1   
    36    16    17 1   
    37    16    18 1   
    38    16    21 1   
    39    17    57 1   
    40    17    58 1   
    41    17    59 1   
    42    18    19 1   
    43    18    60 1   
    44    19    20 1   
    45    19    61 1   
    46    19    62 1   
    47    20    21 1   
    48    20    63 1   
    49    20    64 1   
    50    21    22 1   
    51    21    65 1   
    52    22    23 1   
    53    22    24 1   
    54    22    66 1   
    55    23    67 1   
    56    23    68 1   
    57    23    69 1   
    58    24    25 1   
    59    24    70 1   
    60    24    71 1   
    61    25    26 3   
    62    26    27 1   
    63    27    28 1   
    64    27    29 1   
    65    27    72 1   
    66    28    73 1   
    67    29    30 1   
    68    29    31 1   
    69    29    38 1   
    70    30    34 1   
    71    30    74 1   
    72    30    75 1   
    73    31    32 1   
    74    31    76 1   
    75    31    77 1   
    76    32    33 1   
    77    32    36 1   
    78    32    78 1   
    79    33    34 1   
    80    33    79 1   
    81    33    80 1   
    82    34    35 1   
    83    34    81 1   
    84    35    37 1   
    85    35    82 1   
    86    35    83 1   
    87    36    37 1   
    88    36    84 1   
    89    36    85 1   
    90    37    38 1   
    91    37    86 1   
    92    38    87 1   
    93    38    88 1   
@<TRIPOS>SUBSTRUCTURE
     1 8J0         1 TEMP              0 ****  ****    0 ROOT
