@<TRIPOS>MOLECULE
8J0
   88    93     1     0     0
SMALL
No Charge or Current Charge


@<TRIPOS>ATOM
      1 C10          8.2830    -0.2500    -1.1450 c6         1 8J0      -0.073200
      2 O02          6.8490    -2.5340     1.3510 oh         1 8J0      -0.656000
      3 C03          7.8560    -1.5340     1.5200 c6         1 8J0       0.211500
      4 C04          7.2690    -0.1630     1.1550 ce         1 8J0      -0.125200
      5 C39          7.0200     0.7750     2.0960 c2         1 8J0      -0.295000
      6 C02          9.0990    -1.8550     0.6550 c6         1 8J0      -0.065400
      7 C01          8.8140    -1.6760    -0.8560 c6         1 8J0       0.176300
      8 O01         10.0090    -1.9170    -1.6100 oh         1 8J0      -0.662000
      9 C05          7.0490     0.0620    -0.2880 ce         1 8J0      -0.064200
     10 C06          5.9070     0.5540    -0.8530 cf         1 8J0      -0.164000
     11 C07          4.6650     0.8700    -0.1410 cf         1 8J0      -0.191000
     12 C08          3.5690     1.5170    -0.6310 c2         1 8J0      -0.079400
     13 C09          3.4710     2.0990    -2.0480 c6         1 8J0      -0.042200
     14 C11          2.1750     1.6570    -2.7740 c6         1 8J0      -0.071400
     15 C12          0.9070     1.8610    -1.8970 c6         1 8J0      -0.062400
     16 C13          1.0510     1.1900    -0.4890 c5         1 8J0      -0.035000
     17 C18          1.1000    -0.3670    -0.6760 c3         1 8J0      -0.080100
     18 C14          2.3110     1.8110     0.2090 c5         1 8J0      -0.035500
     19 C15          2.2510     1.1770     1.6240 c5         1 8J0      -0.070400
     20 C16          0.7310     1.2740     1.9690 c5         1 8J0      -0.079400
     21 C17         -0.0090     1.6330     0.5980 c5         1 8J0      -0.055700
     22 C20         -1.4710     1.0640     0.5320 c3         1 8J0      -0.047700
     23 C21         -2.1860     1.2900    -0.8250 c3         1 8J0      -0.089100
     24 C22         -2.3710     1.6230     1.7270 c3         1 8J0       0.003700
     25 C23         -3.7580     1.0820     1.9170 c1         1 8J0      -0.117100
     26 C24         -4.8740     0.6270     2.0140 c1         1 8J0      -0.183100
     27 C25         -6.2260     0.0540     2.0600 c3         1 8J0       0.267400
     28 O03         -7.0920     1.0260     2.6500 oh         1 8J0      -0.647000
     29 C29         -6.7570    -0.4460     0.6570 c6         1 8J0      -0.072000
     30 C34         -6.8640     0.7220    -0.3900 c6         1 8J0      -0.063400
     31 C37         -5.8050    -1.5490     0.0660 c6         1 8J0      -0.063400
     32 C35         -6.3370    -2.0730    -1.2990 c6         1 8J0      -0.058367
     33 C38         -6.4250    -0.8900    -2.3050 c6         1 8J0      -0.068067
     34 C33         -7.3960     0.1930    -1.7540 c6         1 8J0      -0.058367
     35 C32         -8.8060    -0.4300    -1.5530 c6         1 8J0      -0.068067
     36 C36         -7.7480    -2.6930    -1.0990 c6         1 8J0      -0.068067
     37 C31         -8.7160    -1.6110    -0.5450 c6         1 8J0      -0.058367
     38 C30         -8.1810    -1.0870     0.8190 c6         1 8J0      -0.063400
     39 H1           9.0650     0.4920    -0.9320 hc         1 8J0       0.051700
     40 H2           8.0470    -0.1530    -2.2140 hc         1 8J0       0.051700
     41 H3           6.0180    -2.1270     1.6770 ho         1 8J0       0.444000
     42 H4           8.1750    -1.5160     2.5730 h1         1 8J0       0.036700
     43 H5           7.2070     0.5950     3.1550 ha         1 8J0       0.168500
     44 H6           6.6300     1.7590     1.8330 ha         1 8J0       0.168500
     45 H7           9.9210    -1.1900     0.9530 hc         1 8J0       0.062200
     46 H8           9.4400    -2.8790     0.8560 hc         1 8J0       0.062200
     47 H9           8.0380    -2.3990    -1.1500 h1         1 8J0       0.049700
     48 H10          9.7600    -1.8650    -2.5590 ho         1 8J0       0.442000
     49 H11          5.9190     0.6930    -1.9320 ha         1 8J0       0.170000
     50 H12          4.6480     0.5350     0.8930 ha         1 8J0       0.174000
     51 H13          3.4790     3.1950    -1.9730 hc         1 8J0       0.046200
     52 H14          4.3310     1.8450    -2.6760 hc         1 8J0       0.046200
     53 H15          2.0680     2.2220    -3.7100 hc         1 8J0       0.041200
     54 H16          2.2620     0.6030    -3.0700 hc         1 8J0       0.041200
     55 H17          0.7250     2.9370    -1.7750 hc         1 8J0       0.040700
     56 H18          0.0460     1.4670    -2.4460 hc         1 8J0       0.040700
     57 H19          2.0280    -0.6980    -1.1560 hc         1 8J0       0.035700
     58 H20          1.0220    -0.9110     0.2720 hc         1 8J0       0.035700
     59 H21          0.2700    -0.7150    -1.3020 hc         1 8J0       0.035700
     60 H22          2.2100     2.9010     0.2970 hc         1 8J0       0.053700
     61 H23          2.5780     0.1320     1.6340 hc         1 8J0       0.044700
     62 H24          2.8760     1.7150     2.3450 hc         1 8J0       0.044700
     63 H25          0.4040     0.3360     2.4580 hc         1 8J0       0.042200
     64 H26          0.5560     2.0650     2.7070 hc         1 8J0       0.042200
     65 H27         -0.1300     2.7230     0.5430 hc         1 8J0       0.045700
     66 H28         -1.4160    -0.0230     0.6760 hc         1 8J0       0.055700
     67 H29         -1.7670     0.6390    -1.5980 hc         1 8J0       0.036367
     68 H30         -3.2520     1.0420    -0.7660 hc         1 8J0       0.036367
     69 H31         -2.0980     2.3340    -1.1470 hc         1 8J0       0.036367
     70 H32         -1.8480     1.4610     2.6760 hc         1 8J0       0.058700
     71 H33         -2.4500     2.7110     1.6160 hc         1 8J0       0.058700
     72 H34         -6.1770    -0.8290     2.7140 h1         1 8J0       0.084700
     73 H35         -6.9040     1.8650     2.1820 ho         1 8J0       0.445000
     74 H36         -7.5320     1.5110    -0.0210 hc         1 8J0       0.044033
     75 H37         -5.8850     1.1960    -0.5440 hc         1 8J0       0.044033
     76 H38         -4.7900    -1.1540    -0.0780 hc         1 8J0       0.044033
     77 H39         -5.7080    -2.3850     0.7730 hc         1 8J0       0.044033
     78 H40         -5.6520    -2.8380    -1.6900 hc         1 8J0       0.048700
     79 H41         -5.4280    -0.4580    -2.4700 hc         1 8J0       0.039533
     80 H42         -6.7730    -1.2500    -3.2830 hc         1 8J0       0.039533
     81 H43         -7.4610     1.0240    -2.4690 hc         1 8J0       0.048700
     82 H44         -9.5080     0.3300    -1.1850 hc         1 8J0       0.039533
     83 H45         -9.2060    -0.7820    -2.5140 hc         1 8J0       0.039533
     84 H46         -8.1260    -3.0900    -2.0520 hc         1 8J0       0.039533
     85 H47         -7.6940    -3.5450    -0.4080 hc         1 8J0       0.039533
     86 H48         -9.7140    -2.0500    -0.4040 hc         1 8J0       0.048700
     87 H49         -8.1450    -1.9120     1.5450 hc         1 8J0       0.044033
     88 H50         -8.8900    -0.3540     1.2270 hc         1 8J0       0.044033
@<TRIPOS>BOND
     1     1     7 1   
     2     1     9 1   
     3     1    39 1   
     4     1    40 1   
     5     2     3 1   
     6     2    41 1   
     7     3     4 1   
     8     3     6 1   
     9     3    42 1   
    10     4     5 2   
    11     4     9 1   
    12     5    43 1   
    13     5    44 1   
    14     6     7 1   
    15     6    45 1   
    16     6    46 1   
    17     7     8 1   
    18     7    47 1   
    19     8    48 1   
    20     9    10 2   
    21    10    11 1   
    22    10    49 1   
    23    11    12 2   
    24    11    50 1   
    25    12    13 1   
    26    12    18 1   
    27    13    14 1   
    28    13    51 1   
    29    13    52 1   
    30    14    15 1   
    31    14    53 1   
    32    14    54 1   
    33    15    16 1   
    34    15    55 1   
    35    15    56 1   
    36    16    17 1   
    37    16    18 1   
    38    16    21 1   
    39    17    57 1   
    40    17    58 1   
    41    17    59 1   
    42    18    19 1   
    43    18    60 1   
    44    19    20 1   
    45    19    61 1   
    46    19    62 1   
    47    20    21 1   
    48    20    63 1   
    49    20    64 1   
    50    21    22 1   
    51    21    65 1   
    52    22    23 1   
    53    22    24 1   
    54    22    66 1   
    55    23    67 1   
    56    23    68 1   
    57    23    69 1   
    58    24    25 1   
    59    24    70 1   
    60    24    71 1   
    61    25    26 3   
    62    26    27 1   
    63    27    28 1   
    64    27    29 1   
    65    27    72 1   
    66    28    73 1   
    67    29    30 1   
    68    29    31 1   
    69    29    38 1   
    70    30    34 1   
    71    30    74 1   
    72    30    75 1   
    73    31    32 1   
    74    31    76 1   
    75    31    77 1   
    76    32    33 1   
    77    32    36 1   
    78    32    78 1   
    79    33    34 1   
    80    33    79 1   
    81    33    80 1   
    82    34    35 1   
    83    34    81 1   
    84    35    37 1   
    85    35    82 1   
    86    35    83 1   
    87    36    37 1   
    88    36    84 1   
    89    36    85 1   
    90    37    38 1   
    91    37    86 1   
    92    38    87 1   
    93    38    88 1   
@<TRIPOS>SUBSTRUCTURE
     1 8J0         1 TEMP              0 ****  ****    0 ROOT
