@<TRIPOS>MOLECULE
8J1
   44    46     1     0     0
SMALL
abcg2


@<TRIPOS>ATOM
      1 N02          6.1910    -1.7950     1.7110 nv         1 8J1      -1.070900
      2 C02          5.2950    -1.1340     0.9370 ca         1 8J1       0.620900
      3 N01          4.1110    -0.8730     1.4390 nb         1 8J1      -0.760000
      4 C10          3.2360    -0.1720     0.6810 ca         1 8J1       0.322000
      5 C03          5.6890    -0.7160    -0.3700 ca         1 8J1      -0.213000
      6 C04          4.8250    -0.0160    -1.1540 ca         1 8J1       0.006700
      7 C11          5.2150     0.4310    -2.5280 c3         1 8J1      -0.056800
      8 C05          3.5300     0.2840    -0.6250 ca         1 8J1      -0.117000
      9 C06          2.5510     1.0060    -1.3360 ca         1 8J1      -0.080000
     10 C07          1.3270     1.2730    -0.7810 ca         1 8J1      -0.106000
     11 C08          1.0250     0.8220     0.5210 ca         1 8J1      -0.071300
     12 C09          1.9630     0.1120     1.2270 ca         1 8J1      -0.084000
     13 C12         -0.3100     1.1330     1.1260 c3         1 8J1       0.209900
     14 O13         -1.3030     0.5040     0.3330 os         1 8J1      -0.341100
     15 C21         -2.6020     0.7190     0.6340 ca         1 8J1       0.137100
     16 C26         -3.5330     0.1420    -0.2280 ca         1 8J1      -0.120000
     17 C22         -3.0410     1.4600     1.7310 ca         1 8J1      -0.197000
     18 C23         -4.4050     1.6150     1.9400 ca         1 8J1      -0.077000
     19 C24         -5.3310     1.0460     1.0790 ca         1 8J1      -0.146000
     20 C25         -4.8950     0.3060    -0.0180 ca         1 8J1      -0.056300
     21 C27         -5.8790    -0.3180    -0.9710 c3         1 8J1       0.201100
     22 N28         -5.6900    -1.7520    -1.0620 n7         1 8J1      -0.854400
     23 C29         -6.6120    -2.3710    -1.9930 c3         1 8J1       0.143100
     24 H1           5.8450    -2.2580     2.5350 hn         1 8J1       0.479000
     25 H2           6.9870    -2.2260     1.2750 hn         1 8J1       0.479000
     26 H3           6.6810    -0.9610    -0.7290 ha         1 8J1       0.118000
     27 H4           4.5540     0.0040    -3.2850 hc         1 8J1       0.049033
     28 H5           5.1510     1.5160    -2.6240 hc         1 8J1       0.049033
     29 H6           6.2350     0.1320    -2.7620 hc         1 8J1       0.049033
     30 H7           2.7690     1.3620    -2.3350 ha         1 8J1       0.112000
     31 H8           0.5930     1.8400    -1.3400 ha         1 8J1       0.121000
     32 H9           1.7460    -0.2500     2.2250 ha         1 8J1       0.129000
     33 H10         -0.3530     0.7750     2.1600 h1         1 8J1       0.041700
     34 H11         -0.4720     2.2170     1.1440 h1         1 8J1       0.041700
     35 H12         -3.1820    -0.4350    -1.0760 ha         1 8J1       0.139000
     36 H13         -2.3480     1.9150     2.4250 ha         1 8J1       0.115000
     37 H14         -4.7430     2.1860     2.7950 ha         1 8J1       0.110000
     38 H15         -6.3910     1.1740     1.2590 ha         1 8J1       0.111000
     39 H16         -6.9010    -0.0370    -0.6720 h1         1 8J1       0.036200
     40 H17         -5.7300     0.1030    -1.9710 h1         1 8J1       0.036200
     41 H18         -5.8250    -2.1570    -0.1440 hn         1 8J1       0.411000
     42 H20         -6.3960    -2.0330    -3.0080 h1         1 8J1       0.029033
     43 H21         -6.4850    -3.4530    -1.9720 h1         1 8J1       0.029033
     44 H22         -7.6700    -2.1520    -1.7940 h1         1 8J1       0.029033
@<TRIPOS>BOND
     1     1     2 1   
     2     1    24 1   
     3     1    25 1   
     4     2     3 ar  
     5     2     5 ar  
     6     3     4 ar  
     7     4     8 ar  
     8     4    12 ar  
     9     5     6 ar  
    10     5    26 1   
    11     6     7 1   
    12     6     8 ar  
    13     7    27 1   
    14     7    28 1   
    15     7    29 1   
    16     8     9 ar  
    17     9    10 ar  
    18     9    30 1   
    19    10    11 ar  
    20    10    31 1   
    21    11    12 ar  
    22    11    13 1   
    23    12    32 1   
    24    13    14 1   
    25    13    33 1   
    26    13    34 1   
    27    14    15 1   
    28    15    16 ar  
    29    15    17 ar  
    30    16    20 ar  
    31    16    35 1   
    32    17    18 ar  
    33    17    36 1   
    34    18    19 ar  
    35    18    37 1   
    36    19    20 ar  
    37    19    38 1   
    38    20    21 1   
    39    21    22 1   
    40    21    39 1   
    41    21    40 1   
    42    22    23 1   
    43    22    41 1   
    44    23    42 1   
    45    23    43 1   
    46    23    44 1   
@<TRIPOS>SUBSTRUCTURE
     1 8J1         1 TEMP              0 ****  ****    0 ROOT
