@<TRIPOS>MOLECULE
8J1
   44    46     1     0     0
SMALL
No Charge or Current Charge


@<TRIPOS>ATOM
      1 N02          5.3940    -2.7490     1.1510 nv         1 8J1      -1.070900
      2 C02          4.9220    -1.6570     0.5490 ca         1 8J1       0.620900
      3 N01          3.7140    -1.3570     0.9970 nb         1 8J1      -0.760000
      4 C10          3.1010    -0.2720     0.4680 ca         1 8J1       0.322000
      5 C03          5.6150    -0.9490    -0.4310 ca         1 8J1      -0.213000
      6 C04          5.0070     0.1810    -0.9990 ca         1 8J1       0.006700
      7 C11          5.7450     0.9750    -2.0720 c3         1 8J1      -0.056800
      8 C05          3.7140     0.5300    -0.5360 ca         1 8J1      -0.117000
      9 C06          3.0240     1.6520    -1.0510 ca         1 8J1      -0.080000
     10 C07          1.7440     1.9780    -0.5780 ca         1 8J1      -0.106000
     11 C08          1.1330     1.1940     0.4140 ca         1 8J1      -0.071300
     12 C09          1.8170     0.0760     0.9260 ca         1 8J1      -0.084000
     13 C12         -0.2570     1.5450     0.9280 c3         1 8J1       0.209900
     14 O13         -1.2240     0.7860     0.1820 os         1 8J1      -0.341100
     15 C21         -2.5790     0.8870     0.4190 ca         1 8J1       0.137100
     16 C26         -3.4430     0.1030    -0.3650 ca         1 8J1      -0.120000
     17 C22         -3.1170     1.7400     1.4070 ca         1 8J1      -0.197000
     18 C23         -4.5070     1.7990     1.6020 ca         1 8J1      -0.077000
     19 C24         -5.3640     1.0120     0.8140 ca         1 8J1      -0.146000
     20 C25         -4.8370     0.1590    -0.1760 ca         1 8J1      -0.056300
     21 C27         -5.7640    -0.6930    -1.0350 c3         1 8J1       0.201100
     22 N28         -5.8720    -2.0590    -0.4910 n7         1 8J1      -0.854400
     23 C29         -6.7790    -2.9580    -1.2300 c3         1 8J1       0.143100
     24 H1           4.6920    -3.2820     1.6500 hn         1 8J1       0.479000
     25 H2           6.1010    -3.2840     0.6600 hn         1 8J1       0.479000
     26 H3           6.6040    -1.2710    -0.7410 ha         1 8J1       0.118000
     27 H4           5.1790     0.9890    -3.0120 hc         1 8J1       0.049033
     28 H5           5.9050     2.0120    -1.7550 hc         1 8J1       0.049033
     29 H6           6.7290     0.5450    -2.2910 hc         1 8J1       0.049033
     30 H7           3.4670     2.2800    -1.8200 ha         1 8J1       0.112000
     31 H8           1.2260     2.8430    -0.9870 ha         1 8J1       0.121000
     32 H9           1.3460    -0.5360     1.6900 ha         1 8J1       0.129000
     33 H10         -0.3210     1.3080     1.9980 h1         1 8J1       0.041700
     34 H11         -0.4330     2.6220     0.8050 h1         1 8J1       0.041700
     35 H12         -3.0250    -0.5540    -1.1230 ha         1 8J1       0.139000
     36 H13         -2.4780     2.3590     2.0300 ha         1 8J1       0.115000
     37 H14         -4.9220     2.4560     2.3640 ha         1 8J1       0.110000
     38 H15         -6.4390     1.0660     0.9730 ha         1 8J1       0.111000
     39 H16         -6.7540    -0.2170    -1.0750 h1         1 8J1       0.036200
     40 H17         -5.3750    -0.7190    -2.0620 h1         1 8J1       0.036200
     41 H18         -6.2130    -1.9820     0.4760 hn         1 8J1       0.411000
     42 H20         -6.4490    -3.0750    -2.2720 h1         1 8J1       0.029033
     43 H21         -6.7990    -3.9530    -0.7660 h1         1 8J1       0.029033
     44 H22         -7.8040    -2.5630    -1.2360 h1         1 8J1       0.029033
@<TRIPOS>BOND
     1     1     2 1   
     2     1    24 1   
     3     1    25 1   
     4     2     3 ar  
     5     2     5 ar  
     6     3     4 ar  
     7     4     8 ar  
     8     4    12 ar  
     9     5     6 ar  
    10     5    26 1   
    11     6     7 1   
    12     6     8 ar  
    13     7    27 1   
    14     7    28 1   
    15     7    29 1   
    16     8     9 ar  
    17     9    10 ar  
    18     9    30 1   
    19    10    11 ar  
    20    10    31 1   
    21    11    12 ar  
    22    11    13 1   
    23    12    32 1   
    24    13    14 1   
    25    13    33 1   
    26    13    34 1   
    27    14    15 1   
    28    15    16 ar  
    29    15    17 ar  
    30    16    20 ar  
    31    16    35 1   
    32    17    18 ar  
    33    17    36 1   
    34    18    19 ar  
    35    18    37 1   
    36    19    20 ar  
    37    19    38 1   
    38    20    21 1   
    39    21    22 1   
    40    21    39 1   
    41    21    40 1   
    42    22    23 1   
    43    22    41 1   
    44    23    42 1   
    45    23    43 1   
    46    23    44 1   
@<TRIPOS>SUBSTRUCTURE
     1 8J1         1 TEMP              0 ****  ****    0 ROOT
