@<TRIPOS>MOLECULE
8J3
   88    93     1     0     0
SMALL
abcg2


@<TRIPOS>ATOM
      1 C01         -7.7100    -1.9020     1.9490 c6         1 8J3       0.176300
      2 O01         -8.8300    -2.1660     2.7680 oh         1 8J3      -0.662000
      3 C02         -7.9110    -2.6550     0.6420 c6         1 8J3      -0.065400
      4 C03         -6.7770    -2.4070    -0.3430 c6         1 8J3       0.211500
      5 C04         -6.5710    -0.9250    -0.5560 ce         1 8J3      -0.125200
      6 C05         -6.4490    -0.1380     0.6860 ce         1 8J3      -0.065200
      7 C06         -5.4530     0.7250     0.9520 cf         1 8J3      -0.164000
      8 C07         -4.2990     0.9870     0.1120 cf         1 8J3      -0.190000
      9 C08         -3.3730     1.9380     0.3120 c2         1 8J3      -0.079400
     10 C09         -3.3900     2.9570     1.4190 c6         1 8J3      -0.042200
     11 C10         -7.5520    -0.4040     1.6750 c6         1 8J3      -0.073200
     12 C11         -2.0620     2.9980     2.1840 c6         1 8J3      -0.071400
     13 C12         -0.8460     3.1060     1.2630 c6         1 8J3      -0.063400
     14 C13         -0.8460     2.0130     0.1920 c5         1 8J3      -0.034000
     15 C14         -2.1860     2.1220    -0.5790 c5         1 8J3      -0.036500
     16 C15         -1.9860     1.2470    -1.8060 c5         1 8J3      -0.070400
     17 C16         -0.5010     1.4550    -2.1610 c5         1 8J3      -0.078400
     18 O02         -5.6060    -2.9930     0.1970 oh         1 8J3      -0.656000
     19 C39         -6.5440    -0.3980    -1.7790 c2         1 8J3      -0.295000
     20 C18         -0.6820     0.6280     0.8230 c3         1 8J3      -0.079100
     21 C17          0.1520     2.2130    -0.9740 c5         1 8J3      -0.055700
     22 C20          1.6150     1.8160    -0.7510 c3         1 8J3      -0.045700
     23 C21          2.2620     2.5190     0.4380 c3         1 8J3      -0.089100
     24 C22          2.4230     2.1110    -2.0330 c3         1 8J3       0.004700
     25 C23          3.8010     1.6450    -1.9440 c1         1 8J3      -0.117100
     26 C24          4.9260     1.2360    -1.8090 c1         1 8J3      -0.183100
     27 C25          6.2920     0.7370    -1.5950 c3         1 8J3       0.267400
     28 O03          6.9210     0.4250    -2.8180 oh         1 8J3      -0.646000
     29 C29          6.3240    -0.4200    -0.5730 c6         1 8J3      -0.072000
     30 C34          5.7020     0.0490     0.7510 c6         1 8J3      -0.063400
     31 C37          5.5540    -1.6480    -1.0760 c6         1 8J3      -0.063400
     32 C35          5.6070    -2.7670    -0.0320 c6         1 8J3      -0.058367
     33 C38          4.9780    -2.2790     1.2740 c6         1 8J3      -0.068733
     34 C33          5.7540    -1.0670     1.7950 c6         1 8J3      -0.058367
     35 C32          7.2080    -1.4620     2.0510 c6         1 8J3      -0.068733
     36 C36          7.0640    -3.1600     0.2230 c6         1 8J3      -0.068733
     37 C31          7.8360    -1.9450     0.7430 c6         1 8J3      -0.058367
     38 C30          7.7800    -0.8270    -0.3010 c6         1 8J3      -0.063400
     39 H1          -6.7920    -2.2610     2.4320 h1         1 8J3       0.049700
     40 H2          -8.6650    -1.7820     3.6340 ho         1 8J3       0.442000
     41 H3          -8.0060    -3.7280     0.8290 hc         1 8J3       0.062200
     42 H4          -8.8470    -2.3270     0.1780 hc         1 8J3       0.062200
     43 H5          -7.0360    -2.8710    -1.3040 h1         1 8J3       0.037700
     44 H6          -5.5030     1.2460     1.9030 ha         1 8J3       0.170000
     45 H7          -4.1840     0.3380    -0.7480 ha         1 8J3       0.174000
     46 H8          -3.5610     3.9420     0.9670 hc         1 8J3       0.046200
     47 H9          -4.2110     2.7980     2.1170 hc         1 8J3       0.046200
     48 H10         -8.5030    -0.0350     1.2710 hc         1 8J3       0.051700
     49 H11         -7.3640     0.1330     2.6090 hc         1 8J3       0.051700
     50 H12         -2.0730     3.8450     2.8730 hc         1 8J3       0.041200
     51 H13         -1.9780     2.1030     2.8050 hc         1 8J3       0.041200
     52 H14         -0.8510     4.0810     0.7620 hc         1 8J3       0.041700
     53 H15          0.0590     3.0770     1.8720 hc         1 8J3       0.041700
     54 H16         -2.2290     3.1650    -0.9320 hc         1 8J3       0.052700
     55 H17         -2.1840     0.1970    -1.5830 hc         1 8J3       0.044700
     56 H18         -2.6560     1.5250    -2.6220 hc         1 8J3       0.044700
     57 H19         -0.0070     0.4940    -2.3320 hc         1 8J3       0.041200
     58 H20         -0.3940     2.0210    -3.0870 hc         1 8J3       0.041200
     59 H21         -4.8740    -2.8000    -0.3970 ho         1 8J3       0.443000
     60 H22         -6.6610    -1.0180    -2.6600 ha         1 8J3       0.168500
     61 H23         -6.4220     0.6650    -1.9420 ha         1 8J3       0.168500
     62 H24          0.2540     0.5620     1.3820 hc         1 8J3       0.035367
     63 H25         -1.4880     0.4040     1.5220 hc         1 8J3       0.035367
     64 H26         -0.6700    -0.1700     0.0800 hc         1 8J3       0.035367
     65 H27          0.1400     3.2870    -1.2060 hc         1 8J3       0.044700
     66 H28          1.6610     0.7340    -0.5810 hc         1 8J3       0.053700
     67 H29          1.8560     2.1730     1.3860 hc         1 8J3       0.036700
     68 H30          3.3360     2.3310     0.4660 hc         1 8J3       0.036700
     69 H31          2.1170     3.6010     0.3850 hc         1 8J3       0.036700
     70 H32          1.9510     1.6380    -2.8970 hc         1 8J3       0.058200
     71 H33          2.4100     3.1880    -2.2280 hc         1 8J3       0.058200
     72 H34          6.8850     1.5560    -1.1680 h1         1 8J3       0.084700
     73 H35          6.4220    -0.2750    -3.2510 ho         1 8J3       0.445000
     74 H36          6.2400     0.9330     1.1130 hc         1 8J3       0.043700
     75 H37          4.6640     0.3550     0.5930 hc         1 8J3       0.043700
     76 H38          4.5130    -1.3790    -1.2840 hc         1 8J3       0.043700
     77 H39          5.9840    -2.0140    -2.0150 hc         1 8J3       0.043700
     78 H40          5.0520    -3.6320    -0.4060 hc         1 8J3       0.049033
     79 H41          3.9280    -2.0110     1.1120 hc         1 8J3       0.039700
     80 H42          4.9870    -3.0820     2.0180 hc         1 8J3       0.039700
     81 H43          5.2980    -0.7110     2.7240 hc         1 8J3       0.049033
     82 H44          7.7690    -0.6080     2.4450 hc         1 8J3       0.039700
     83 H45          7.2610    -2.2500     2.8100 hc         1 8J3       0.039700
     84 H46          7.1110    -3.9780     0.9510 hc         1 8J3       0.039700
     85 H47          7.5230    -3.5310    -0.6990 hc         1 8J3       0.039700
     86 H48          8.8800    -2.2210     0.9150 hc         1 8J3       0.049033
     87 H49          8.2590    -1.1600    -1.2250 hc         1 8J3       0.043700
     88 H50          8.3450     0.0440     0.0530 hc         1 8J3       0.043700
@<TRIPOS>BOND
     1     1     2 1   
     2     1     3 1   
     3     1    11 1   
     4     1    39 1   
     5     2    40 1   
     6     3     4 1   
     7     3    41 1   
     8     3    42 1   
     9     4     5 1   
    10     4    18 1   
    11     4    43 1   
    12     5     6 1   
    13     5    19 2   
    14     6     7 2   
    15     6    11 1   
    16     7     8 1   
    17     7    44 1   
    18     8     9 2   
    19     8    45 1   
    20     9    10 1   
    21     9    15 1   
    22    10    12 1   
    23    10    46 1   
    24    10    47 1   
    25    11    48 1   
    26    11    49 1   
    27    12    13 1   
    28    12    50 1   
    29    12    51 1   
    30    13    14 1   
    31    13    52 1   
    32    13    53 1   
    33    14    15 1   
    34    14    20 1   
    35    14    21 1   
    36    15    16 1   
    37    15    54 1   
    38    16    17 1   
    39    16    55 1   
    40    16    56 1   
    41    17    21 1   
    42    17    57 1   
    43    17    58 1   
    44    18    59 1   
    45    19    60 1   
    46    19    61 1   
    47    20    62 1   
    48    20    63 1   
    49    20    64 1   
    50    21    22 1   
    51    21    65 1   
    52    22    23 1   
    53    22    24 1   
    54    22    66 1   
    55    23    67 1   
    56    23    68 1   
    57    23    69 1   
    58    24    25 1   
    59    24    70 1   
    60    24    71 1   
    61    25    26 3   
    62    26    27 1   
    63    27    28 1   
    64    27    29 1   
    65    27    72 1   
    66    28    73 1   
    67    29    30 1   
    68    29    31 1   
    69    29    38 1   
    70    30    34 1   
    71    30    74 1   
    72    30    75 1   
    73    31    32 1   
    74    31    76 1   
    75    31    77 1   
    76    32    33 1   
    77    32    36 1   
    78    32    78 1   
    79    33    34 1   
    80    33    79 1   
    81    33    80 1   
    82    34    35 1   
    83    34    81 1   
    84    35    37 1   
    85    35    82 1   
    86    35    83 1   
    87    36    37 1   
    88    36    84 1   
    89    36    85 1   
    90    37    38 1   
    91    37    86 1   
    92    38    87 1   
    93    38    88 1   
@<TRIPOS>SUBSTRUCTURE
     1 8J3         1 TEMP              0 ****  ****    0 ROOT
