@<TRIPOS>MOLECULE
8J3
   88    93     1     0     0
SMALL
No Charge or Current Charge


@<TRIPOS>ATOM
      1 C01         -8.7960    -1.5110     1.2540 c6         1 8J3       0.176300
      2 O01         -9.9670    -1.6980     2.0600 oh         1 8J3      -0.662000
      3 C02         -9.1360    -1.7660    -0.2350 c6         1 8J3      -0.065400
      4 C03         -7.9210    -1.5070    -1.1580 c6         1 8J3       0.211500
      5 C04         -7.3060    -0.1260    -0.8870 ce         1 8J3      -0.125200
      6 C05         -7.0330     0.1720     0.5340 ce         1 8J3      -0.065200
      7 C06         -5.8660     0.6780     1.0320 cf         1 8J3      -0.164000
      8 C07         -4.6470     0.9400     0.2630 cf         1 8J3      -0.190000
      9 C08         -3.5270     1.5990     0.6780 c2         1 8J3      -0.079400
     10 C09         -3.3740     2.2540     2.0580 c6         1 8J3      -0.042200
     11 C10         -8.2390    -0.0790     1.4490 c6         1 8J3      -0.073200
     12 C11         -2.0580     1.8350     2.7620 c6         1 8J3      -0.071400
     13 C12         -0.8200     1.9760     1.8320 c6         1 8J3      -0.063400
     14 C13         -1.0200     1.2330     0.4680 c5         1 8J3      -0.034000
     15 C14         -2.2960     1.8310    -0.2180 c5         1 8J3      -0.036500
     16 C15         -2.2930     1.1220    -1.5980 c5         1 8J3      -0.070400
     17 C16         -0.7850     1.1820    -2.0000 c5         1 8J3      -0.078400
     18 O02         -6.9200    -2.5090    -0.9720 oh         1 8J3      -0.656000
     19 C39         -7.0800     0.7590    -1.8840 c2         1 8J3      -0.295000
     20 C18         -1.0780    -0.3110     0.7410 c3         1 8J3      -0.079100
     21 C17          0.0060     1.6050    -0.6770 c5         1 8J3      -0.055700
     22 C20          1.4640     1.0220    -0.6320 c3         1 8J3      -0.045700
     23 C21          2.2280     1.3120     0.6860 c3         1 8J3      -0.089100
     24 C22          2.3270     1.5060    -1.8850 c3         1 8J3       0.004700
     25 C23          3.7020     0.9440    -2.0930 c1         1 8J3      -0.117100
     26 C24          4.8120     0.4780    -2.2030 c1         1 8J3      -0.183100
     27 C25          6.1610    -0.1030    -2.2650 c3         1 8J3       0.267400
     28 O03          6.1120    -1.2200    -3.1550 oh         1 8J3      -0.646000
     29 C29          6.7560    -0.4900    -0.8530 c6         1 8J3      -0.072000
     30 C34          6.8580     0.7780     0.0700 c6         1 8J3      -0.063400
     31 C37          5.8810    -1.5660    -0.1120 c6         1 8J3      -0.063400
     32 C35          6.5020    -1.9270     1.2690 c6         1 8J3      -0.058367
     33 C38          6.5800    -0.6480     2.1510 c6         1 8J3      -0.068733
     34 C33          7.4740     0.4150     1.4520 c6         1 8J3      -0.058367
     35 C32          8.9030    -0.1610     1.2450 c6         1 8J3      -0.068733
     36 C36          7.9320    -2.5000     1.0610 c6         1 8J3      -0.068733
     37 C31          8.8240    -1.4360     0.3600 c6         1 8J3      -0.058367
     38 C30          8.2050    -1.0710    -1.0210 c6         1 8J3      -0.063400
     39 H1          -8.0180    -2.2280     1.5580 h1         1 8J3       0.049700
     40 H2          -9.6830    -1.5990     2.9960 ho         1 8J3       0.442000
     41 H3          -9.4960    -2.7940    -0.3700 hc         1 8J3       0.062200
     42 H4          -9.9600    -1.1070    -0.5380 hc         1 8J3       0.062200
     43 H5          -8.2770    -1.5400    -2.1990 h1         1 8J3       0.037700
     44 H6          -5.8380     0.8730     2.1030 ha         1 8J3       0.170000
     45 H7          -4.6700     0.5500    -0.7520 ha         1 8J3       0.174000
     46 H8          -3.3730     3.3440     1.9240 hc         1 8J3       0.046200
     47 H9          -4.2130     2.0440     2.7280 hc         1 8J3       0.046200
     48 H10         -9.0200     0.6600     1.2250 hc         1 8J3       0.051700
     49 H11         -7.9640     0.0700     2.5020 hc         1 8J3       0.051700
     50 H12         -1.9120     2.4480     3.6620 hc         1 8J3       0.041200
     51 H13         -2.1450     0.8000     3.1170 hc         1 8J3       0.041200
     52 H14         -0.6310     3.0430     1.6460 hc         1 8J3       0.041700
     53 H15          0.0570     1.6030     2.3710 hc         1 8J3       0.041700
     54 H16         -2.1880     2.9140    -0.3690 hc         1 8J3       0.052700
     55 H17         -2.6310     0.0820    -1.5410 hc         1 8J3       0.044700
     56 H18         -2.9370     1.6290    -2.3260 hc         1 8J3       0.044700
     57 H19         -0.4860     0.2150    -2.4490 hc         1 8J3       0.041200
     58 H20         -0.6280     1.9300    -2.7850 hc         1 8J3       0.041200
     59 H21         -6.0960    -2.1300    -1.3450 ho         1 8J3       0.443000
     60 H22         -7.3060     0.5250    -2.9250 ha         1 8J3       0.168500
     61 H23         -6.6700     1.7490    -1.6860 ha         1 8J3       0.168500
     62 H24         -0.2300    -0.6350     1.3550 hc         1 8J3       0.035367
     63 H25         -1.9920    -0.6040     1.2690 hc         1 8J3       0.035367
     64 H26         -1.0390    -0.9050    -0.1790 hc         1 8J3       0.035367
     65 H27          0.1410     2.6940    -0.6850 hc         1 8J3       0.044700
     66 H28          1.3930    -0.0700    -0.7150 hc         1 8J3       0.053700
     67 H29          1.8300     0.7090     1.5080 hc         1 8J3       0.036700
     68 H30          3.2880     1.0470     0.6040 hc         1 8J3       0.036700
     69 H31          2.1640     2.3730     0.9540 hc         1 8J3       0.036700
     70 H32          1.7700     1.2970    -2.8050 hc         1 8J3       0.058200
     71 H33          2.4160     2.5980    -1.8370 hc         1 8J3       0.058200
     72 H34          6.8220     0.6670    -2.6900 h1         1 8J3       0.084700
     73 H35          5.3350    -1.7460    -2.8740 ho         1 8J3       0.445000
     74 H36          7.4680     1.5530    -0.4160 hc         1 8J3       0.043700
     75 H37          5.8680     1.2270     0.2300 hc         1 8J3       0.043700
     76 H38          4.8570    -1.1980     0.0380 hc         1 8J3       0.043700
     77 H39          5.7930    -2.4770    -0.7210 hc         1 8J3       0.043700
     78 H40          5.8740    -2.6780     1.7680 hc         1 8J3       0.049033
     79 H41          5.5720    -0.2430     2.3220 hc         1 8J3       0.039700
     80 H42          6.9870    -0.8940     3.1410 hc         1 8J3       0.039700
     81 H43          7.5290     1.3170     2.0770 hc         1 8J3       0.049033
     82 H44          9.5510     0.5900     0.7730 hc         1 8J3       0.039700
     83 H45          9.3600    -0.4000     2.2160 hc         1 8J3       0.039700
     84 H46          8.3700    -2.7860     2.0270 hc         1 8J3       0.039700
     85 H47          7.8890    -3.4170     0.4560 hc         1 8J3       0.039700
     86 H48          9.8340    -1.8440     0.2130 hc         1 8J3       0.049033
     87 H49          8.1910    -1.9670    -1.6570 hc         1 8J3       0.043700
     88 H50          8.8490    -0.3430    -1.5340 hc         1 8J3       0.043700
@<TRIPOS>BOND
     1     1     2 1   
     2     1     3 1   
     3     1    11 1   
     4     1    39 1   
     5     2    40 1   
     6     3     4 1   
     7     3    41 1   
     8     3    42 1   
     9     4     5 1   
    10     4    18 1   
    11     4    43 1   
    12     5     6 1   
    13     5    19 2   
    14     6     7 2   
    15     6    11 1   
    16     7     8 1   
    17     7    44 1   
    18     8     9 2   
    19     8    45 1   
    20     9    10 1   
    21     9    15 1   
    22    10    12 1   
    23    10    46 1   
    24    10    47 1   
    25    11    48 1   
    26    11    49 1   
    27    12    13 1   
    28    12    50 1   
    29    12    51 1   
    30    13    14 1   
    31    13    52 1   
    32    13    53 1   
    33    14    15 1   
    34    14    20 1   
    35    14    21 1   
    36    15    16 1   
    37    15    54 1   
    38    16    17 1   
    39    16    55 1   
    40    16    56 1   
    41    17    21 1   
    42    17    57 1   
    43    17    58 1   
    44    18    59 1   
    45    19    60 1   
    46    19    61 1   
    47    20    62 1   
    48    20    63 1   
    49    20    64 1   
    50    21    22 1   
    51    21    65 1   
    52    22    23 1   
    53    22    24 1   
    54    22    66 1   
    55    23    67 1   
    56    23    68 1   
    57    23    69 1   
    58    24    25 1   
    59    24    70 1   
    60    24    71 1   
    61    25    26 3   
    62    26    27 1   
    63    27    28 1   
    64    27    29 1   
    65    27    72 1   
    66    28    73 1   
    67    29    30 1   
    68    29    31 1   
    69    29    38 1   
    70    30    34 1   
    71    30    74 1   
    72    30    75 1   
    73    31    32 1   
    74    31    76 1   
    75    31    77 1   
    76    32    33 1   
    77    32    36 1   
    78    32    78 1   
    79    33    34 1   
    80    33    79 1   
    81    33    80 1   
    82    34    35 1   
    83    34    81 1   
    84    35    37 1   
    85    35    82 1   
    86    35    83 1   
    87    36    37 1   
    88    36    84 1   
    89    36    85 1   
    90    37    38 1   
    91    37    86 1   
    92    38    87 1   
    93    38    88 1   
@<TRIPOS>SUBSTRUCTURE
     1 8J3         1 TEMP              0 ****  ****    0 ROOT
