@<TRIPOS>MOLECULE
8J4
   47    49     1     0     0
SMALL
No Charge or Current Charge


@<TRIPOS>ATOM
      1 C10         -3.8770    -0.0270     0.2630 ca         1 8J4       0.324000
      2 C11         -0.1790    -1.0380    -0.0400 c3         1 8J4       0.209900
      3 N02         -6.6180     1.3250     1.8550 nv         1 8J4      -1.071900
      4 C02         -5.9540     0.7350     0.8610 ca         1 8J4       0.619900
      5 N01         -4.6780     0.5700     1.1780 nb         1 8J4      -0.761000
      6 C03         -6.5450     0.3340    -0.3390 ca         1 8J4      -0.209000
      7 C04         -5.7350    -0.2860    -1.2990 ca         1 8J4      -0.029000
      8 C05         -4.3740    -0.4710    -0.9920 ca         1 8J4      -0.124000
      9 C06         -3.5180    -1.0880    -1.9230 ca         1 8J4      -0.078000
     10 C07         -2.1600    -1.2720    -1.6150 ca         1 8J4      -0.106000
     11 C08         -1.6500    -0.8420    -0.3760 ca         1 8J4      -0.071300
     12 C09         -2.5130    -0.2220     0.5500 ca         1 8J4      -0.085000
     13 O12          0.5310     0.1660    -0.3770 os         1 8J4      -0.343100
     14 C21          1.8900     0.2980    -0.1840 ca         1 8J4       0.140100
     15 C26          2.4870     1.5160    -0.5460 ca         1 8J4      -0.140000
     16 C22          2.6850    -0.7350     0.3580 ca         1 8J4      -0.199000
     17 C23          4.0700    -0.5450     0.5360 ca         1 8J4      -0.052300
     18 C29          4.9310    -1.6560     1.1260 c3         1 8J4       0.200100
     19 N30          5.5030    -2.4980     0.0580 n7         1 8J4      -0.854400
     20 C31          6.3170    -3.6360     0.5260 c3         1 8J4       0.142100
     21 C24          4.6540     0.6820     0.1670 ca         1 8J4      -0.119000
     22 C25          3.8690     1.7160    -0.3750 ca         1 8J4      -0.046300
     23 C27          4.5080     3.0420    -0.7670 c3         1 8J4      -0.032100
     24 C28          4.5140     4.0500     0.3970 c3         1 8J4      -0.087100
     25 H1          -0.0760    -1.2600     1.0310 h1         1 8J4       0.041200
     26 H2           0.2170    -1.8910    -0.6060 h1         1 8J4       0.041200
     27 H3          -6.1210     1.3330     2.7370 hn         1 8J4       0.480500
     28 H4          -7.6190     1.1730     1.9050 hn         1 8J4       0.480500
     29 H5          -7.6020     0.5020    -0.5230 ha         1 8J4       0.120000
     30 H6          -6.1500    -0.6140    -2.2500 ha         1 8J4       0.117000
     31 H7          -3.9010    -1.4250    -2.8840 ha         1 8J4       0.113000
     32 H8          -1.5040    -1.7470    -2.3410 ha         1 8J4       0.122000
     33 H9          -2.1220     0.1150     1.5060 ha         1 8J4       0.128000
     34 H10          1.8690     2.3090    -0.9600 ha         1 8J4       0.126000
     35 H11          2.2480    -1.6860     0.6460 ha         1 8J4       0.112000
     36 H12          5.7320    -1.2080     1.7300 h1         1 8J4       0.035200
     37 H13          4.3140    -2.2630     1.8040 h1         1 8J4       0.035200
     38 H14          4.7210    -2.8680    -0.4960 hn         1 8J4       0.410000
     39 H16          6.7070    -4.2070    -0.3260 h1         1 8J4       0.029033
     40 H17          7.1710    -3.2870     1.1220 h1         1 8J4       0.029033
     41 H18          5.7190    -4.3170     1.1480 h1         1 8J4       0.029033
     42 H19          5.7230     0.8300     0.3030 ha         1 8J4       0.123000
     43 H20          5.5390     2.8810    -1.1050 hc         1 8J4       0.047200
     44 H21          3.9740     3.4840    -1.6170 hc         1 8J4       0.047200
     45 H22          4.9790     4.9930     0.0860 hc         1 8J4       0.035367
     46 H23          3.4910     4.2640     0.7290 hc         1 8J4       0.035367
     47 H24          5.0790     3.6520     1.2490 hc         1 8J4       0.035367
@<TRIPOS>BOND
     1     1     5 ar  
     2     1     8 ar  
     3     1    12 ar  
     4     2    11 1   
     5     2    13 1   
     6     2    25 1   
     7     2    26 1   
     8     3     4 1   
     9     3    27 1   
    10     3    28 1   
    11     4     5 ar  
    12     4     6 ar  
    13     6     7 ar  
    14     6    29 1   
    15     7     8 ar  
    16     7    30 1   
    17     8     9 ar  
    18     9    10 ar  
    19     9    31 1   
    20    10    11 ar  
    21    10    32 1   
    22    11    12 ar  
    23    12    33 1   
    24    13    14 1   
    25    14    15 ar  
    26    14    16 ar  
    27    15    22 ar  
    28    15    34 1   
    29    16    17 ar  
    30    16    35 1   
    31    17    18 1   
    32    17    21 ar  
    33    18    19 1   
    34    18    36 1   
    35    18    37 1   
    36    19    20 1   
    37    19    38 1   
    38    20    39 1   
    39    20    40 1   
    40    20    41 1   
    41    21    22 ar  
    42    21    42 1   
    43    22    23 1   
    44    23    24 1   
    45    23    43 1   
    46    23    44 1   
    47    24    45 1   
    48    24    46 1   
    49    24    47 1   
@<TRIPOS>SUBSTRUCTURE
     1 8J4         1 TEMP              0 ****  ****    0 ROOT
