@<TRIPOS>MOLECULE
8J4
   47    49     1     0     0
SMALL
bcc


@<TRIPOS>ATOM
      1 C10         -3.9600    -0.1750     0.3760 ca         1 8J4       0.454600
      2 C11         -0.2030    -0.7130     0.1250 c3         1 8J4       0.186700
      3 N02         -7.0320     0.2530     2.0580 nv         1 8J4      -0.961500
      4 C02         -6.1340     0.1080     1.0550 ca         1 8J4       0.685200
      5 N01         -4.8720    -0.0770     1.3690 nb         1 8J4      -0.761000
      6 C03         -6.5850     0.2020    -0.3000 ca         1 8J4      -0.292300
      7 C04         -5.6750     0.1030    -1.3000 ca         1 8J4      -0.047000
      8 C05         -4.3030    -0.0890    -0.9930 ca         1 8J4      -0.189300
      9 C06         -3.2980    -0.1980    -1.9740 ca         1 8J4      -0.096000
     10 C07         -1.9900    -0.3890    -1.6160 ca         1 8J4      -0.124000
     11 C08         -1.6350    -0.4820    -0.2520 ca         1 8J4      -0.071300
     12 C09         -2.6020    -0.3710     0.7160 ca         1 8J4      -0.168300
     13 O12          0.5500     0.3960    -0.3390 os         1 8J4      -0.319900
     14 C21          1.8920     0.3760    -0.1890 ca         1 8J4       0.140100
     15 C26          2.5850     1.4570    -0.7300 ca         1 8J4      -0.158000
     16 C22          2.5920    -0.6400     0.4590 ca         1 8J4      -0.217000
     17 C23          3.9790    -0.5720     0.5600 ca         1 8J4      -0.052300
     18 C29          4.7390    -1.6790     1.2410 c3         1 8J4       0.200100
     19 N30          5.5370    -2.4250     0.2860 n7         1 8J4      -0.799200
     20 C31          6.2760    -3.5030     0.9110 c3         1 8J4       0.142100
     21 C24          4.6590     0.5070     0.0090 ca         1 8J4      -0.137000
     22 C25          3.9690     1.5310    -0.6340 ca         1 8J4      -0.046300
     23 C27          4.6980     2.7310    -1.1750 c3         1 8J4      -0.032100
     24 C28          4.7870     3.8530    -0.1420 c3         1 8J4      -0.087100
     25 H1          -0.1080    -0.8230     1.2100 h1         1 8J4       0.041200
     26 H2           0.1620    -1.6380    -0.3360 h1         1 8J4       0.041200
     27 H3          -6.7440    -0.0010     2.9880 hn         1 8J4       0.425300
     28 H4          -8.0120     0.1420     1.8610 hn         1 8J4       0.425300
     29 H5          -7.6370     0.3500    -0.5090 ha         1 8J4       0.138000
     30 H6          -5.9880     0.1720    -2.3350 ha         1 8J4       0.135000
     31 H7          -3.5740    -0.1300    -3.0200 ha         1 8J4       0.131000
     32 H8          -1.2280    -0.4760    -2.3790 ha         1 8J4       0.140000
     33 H9          -2.3410    -0.4360     1.7660 ha         1 8J4       0.146000
     34 H10          2.0310     2.2440    -1.2300 ha         1 8J4       0.144000
     35 H11          2.0790    -1.4890     0.8930 ha         1 8J4       0.130000
     36 H12          5.4200    -1.2480     1.9820 h1         1 8J4       0.035200
     37 H13          4.0380    -2.3160     1.8020 h1         1 8J4       0.035200
     38 H14          4.9230    -2.8120    -0.4210 hn         1 8J4       0.354800
     39 H16          6.8020    -4.0790     0.1500 h1         1 8J4       0.029033
     40 H17          7.0260    -3.0920     1.5910 h1         1 8J4       0.029033
     41 H18          5.6550    -4.1990     1.4910 h1         1 8J4       0.029033
     42 H19          5.7400     0.5520     0.0850 ha         1 8J4       0.141000
     43 H20          5.7050     2.4400    -1.4830 hc         1 8J4       0.047200
     44 H21          4.1910     3.0980    -2.0690 hc         1 8J4       0.047200
     45 H22          5.3170     4.7160    -0.5450 hc         1 8J4       0.035367
     46 H23          3.7940     4.1820     0.1660 hc         1 8J4       0.035367
     47 H24          5.3200     3.5220     0.7510 hc         1 8J4       0.035367
@<TRIPOS>BOND
     1     1     5 ar  
     2     1     8 ar  
     3     1    12 ar  
     4     2    11 1   
     5     2    13 1   
     6     2    25 1   
     7     2    26 1   
     8     3     4 1   
     9     3    27 1   
    10     3    28 1   
    11     4     5 ar  
    12     4     6 ar  
    13     6     7 ar  
    14     6    29 1   
    15     7     8 ar  
    16     7    30 1   
    17     8     9 ar  
    18     9    10 ar  
    19     9    31 1   
    20    10    11 ar  
    21    10    32 1   
    22    11    12 ar  
    23    12    33 1   
    24    13    14 1   
    25    14    15 ar  
    26    14    16 ar  
    27    15    22 ar  
    28    15    34 1   
    29    16    17 ar  
    30    16    35 1   
    31    17    18 1   
    32    17    21 ar  
    33    18    19 1   
    34    18    36 1   
    35    18    37 1   
    36    19    20 1   
    37    19    38 1   
    38    20    39 1   
    39    20    40 1   
    40    20    41 1   
    41    21    22 ar  
    42    21    42 1   
    43    22    23 1   
    44    23    24 1   
    45    23    43 1   
    46    23    44 1   
    47    24    45 1   
    48    24    46 1   
    49    24    47 1   
@<TRIPOS>SUBSTRUCTURE
     1 8J4         1 TEMP              0 ****  ****    0 ROOT
