@<TRIPOS>MOLECULE
8J6
   57    60     1     0     0
SMALL
abcg2


@<TRIPOS>ATOM
      1 C23         -5.5520     1.3670     0.7020 c3         1 8J6      -0.103600
      2 C17         -5.0900    -0.0170     1.1880 c6         1 8J6       0.213200
      3 C16         -3.5750    -0.1560     1.0210 c6         1 8J6      -0.087400
      4 C22         -5.4370    -0.1300     2.6730 c3         1 8J6      -0.103600
      5 N2          -5.7280    -1.1530     0.5240 n7         1 8J6      -0.896400
      6 C18         -5.3920    -1.5150    -0.8530 c6         1 8J6       0.213200
      7 C20         -5.9800    -0.5840    -1.9260 c3         1 8J6      -0.103600
      8 C21         -5.9740    -2.9110    -1.0850 c3         1 8J6      -0.103600
      9 C19         -3.8680    -1.5950    -0.9840 c6         1 8J6      -0.087400
     10 C15         -3.1720    -0.3580    -0.4370 c6         1 8J6       0.231500
     11 N1          -1.7370    -0.5030    -0.6000 nu         1 8J6      -0.912100
     12 C13         -0.8760     0.5310    -0.5280 cc         1 8J6       0.719300
     13 N            0.4080     0.4070    -0.3910 nd         1 8J6      -0.741000
     14 S           -1.4250     2.1830    -0.6740 ss         1 8J6      -0.113400
     15 C14          0.2170     2.7010    -0.5490 cc         1 8J6      -0.281000
     16 C12          1.0360     1.6270    -0.4050 cd         1 8J6       0.393500
     17 C10          2.4980     1.6730    -0.2550 ca         1 8J6      -0.121500
     18 C9           3.2000     2.8790    -0.3080 ca         1 8J6      -0.093000
     19 C8           4.5770     2.8910    -0.1640 ca         1 8J6      -0.119000
     20 C7           5.2760     1.7090     0.0320 ca         1 8J6      -0.093000
     21 C11          3.2120     0.4920    -0.0600 ca         1 8J6      -0.065000
     22 C6           4.5980     0.4920     0.0850 cp         1 8J6      -0.043000
     23 C3           5.3310    -0.7750     0.2910 cp         1 8J6      -0.032000
     24 C2           4.7910    -1.7950     1.0770 ca         1 8J6      -0.099500
     25 C1           5.4800    -2.9830     1.2720 ca         1 8J6      -0.112000
     26 C4           6.5830    -0.9790    -0.2930 ca         1 8J6      -0.099500
     27 C5           7.2720    -2.1670    -0.0980 ca         1 8J6      -0.112000
     28 C            6.7240    -3.1740     0.6850 ca         1 8J6      -0.109000
     29 H1          -5.2550     1.5800    -0.3230 hc         1 8J6       0.038617
     30 H2          -6.6400     1.4500     0.7540 hc         1 8J6       0.038617
     31 H3          -5.1280     2.1540     1.3300 hc         1 8J6       0.038617
     32 H4          -3.0800     0.7240     1.4410 hc         1 8J6       0.055450
     33 H5          -3.2260    -1.0240     1.5900 hc         1 8J6       0.055450
     34 H6          -6.5150    -0.0370     2.8280 hc         1 8J6       0.038617
     35 H7          -5.1210    -1.0930     3.0750 hc         1 8J6       0.038617
     36 H8          -4.9530     0.6600     3.2510 hc         1 8J6       0.038617
     37 H9          -6.7350    -1.0810     0.6170 hn         1 8J6       0.420000
     38 H11         -5.5330     0.4080    -1.9330 hc         1 8J6       0.038617
     39 H12         -5.8370    -1.0070    -2.9220 hc         1 8J6       0.038617
     40 H13         -7.0540    -0.4600    -1.7720 hc         1 8J6       0.038617
     41 H14         -7.0640    -2.8990    -1.0010 hc         1 8J6       0.038617
     42 H15         -5.7260    -3.2820    -2.0810 hc         1 8J6       0.038617
     43 H16         -5.5870    -3.6200    -0.3520 hc         1 8J6       0.038617
     44 H17         -3.5080    -2.4670    -0.4250 hc         1 8J6       0.055450
     45 H18         -3.6000    -1.7500    -2.0310 hc         1 8J6       0.055450
     46 H19         -3.4750     0.5080    -1.0360 h1         1 8J6       0.064700
     47 H20         -1.3370    -1.3970    -0.3500 hn         1 8J6       0.492000
     48 H21          0.4580     3.7510    -0.5770 h4         1 8J6       0.159000
     49 H22          2.6780     3.8140    -0.4660 ha         1 8J6       0.111000
     50 H23          5.1120     3.8310    -0.1980 ha         1 8J6       0.112000
     51 H24          6.3510     1.7410     0.1620 ha         1 8J6       0.114000
     52 H25          2.6690    -0.4440    -0.0410 ha         1 8J6       0.138000
     53 H26          3.8310    -1.6530     1.5570 ha         1 8J6       0.115000
     54 H27          5.0460    -3.7570     1.8910 ha         1 8J6       0.111500
     55 H28          7.0170    -0.2120    -0.9220 ha         1 8J6       0.115000
     56 H29          8.2390    -2.3080    -0.5650 ha         1 8J6       0.111500
     57 H30          7.2620    -4.1010     0.8370 ha         1 8J6       0.111000
@<TRIPOS>BOND
     1     1     2 1   
     2     1    29 1   
     3     1    30 1   
     4     1    31 1   
     5     2     3 1   
     6     2     4 1   
     7     2     5 1   
     8     3    10 1   
     9     3    32 1   
    10     3    33 1   
    11     4    34 1   
    12     4    35 1   
    13     4    36 1   
    14     5     6 1   
    15     5    37 1   
    16     6     7 1   
    17     6     8 1   
    18     6     9 1   
    19     7    38 1   
    20     7    39 1   
    21     7    40 1   
    22     8    41 1   
    23     8    42 1   
    24     8    43 1   
    25     9    10 1   
    26     9    44 1   
    27     9    45 1   
    28    10    11 1   
    29    10    46 1   
    30    11    12 1   
    31    11    47 1   
    32    12    13 2   
    33    12    14 1   
    34    13    16 1   
    35    14    15 1   
    36    15    16 2   
    37    15    48 1   
    38    16    17 1   
    39    17    18 ar  
    40    17    21 ar  
    41    18    19 ar  
    42    18    49 1   
    43    19    20 ar  
    44    19    50 1   
    45    20    22 ar  
    46    20    51 1   
    47    21    22 ar  
    48    21    52 1   
    49    22    23 1   
    50    23    24 ar  
    51    23    26 ar  
    52    24    25 ar  
    53    24    53 1   
    54    25    28 ar  
    55    25    54 1   
    56    26    27 ar  
    57    26    55 1   
    58    27    28 ar  
    59    27    56 1   
    60    28    57 1   
@<TRIPOS>SUBSTRUCTURE
     1 8J6         1 TEMP              0 ****  ****    0 ROOT
