@<TRIPOS>MOLECULE
8J6
   57    60     1     0     0
SMALL
No Charge or Current Charge


@<TRIPOS>ATOM
      1 C23         -5.7170     1.3850     0.7050 c3         1 8J6      -0.103600
      2 C17         -5.1790     0.0030     1.1910 c6         1 8J6       0.213200
      3 C16         -3.6260    -0.1020     1.0320 c6         1 8J6      -0.087400
      4 C22         -5.5500    -0.1050     2.6970 c3         1 8J6      -0.103600
      5 N2          -5.9130    -1.1030     0.5060 n7         1 8J6      -0.896400
      6 C18         -5.4280    -1.5650    -0.8310 c6         1 8J6       0.213200
      7 C20         -6.0490    -0.6820    -1.9570 c3         1 8J6      -0.103600
      8 C21         -6.0050    -2.9970    -1.0320 c3         1 8J6      -0.103600
      9 C19         -3.8660    -1.6200    -0.9310 c6         1 8J6      -0.087400
     10 C15         -3.1970    -0.3190    -0.4370 c6         1 8J6       0.231500
     11 N1          -1.7160    -0.3950    -0.5670 nu         1 8J6      -0.912100
     12 C13         -0.9020     0.6840    -0.5660 cc         1 8J6       0.719300
     13 N            0.3730     0.4530    -0.4000 nd         1 8J6      -0.741000
     14 S           -1.4070     2.3410    -0.7510 ss         1 8J6      -0.113400
     15 C14          0.2710     2.7740    -0.5920 cc         1 8J6      -0.281000
     16 C12          1.0650     1.6580    -0.4150 cd         1 8J6       0.393500
     17 C10          2.5390     1.6830    -0.2460 ca         1 8J6      -0.121500
     18 C9           3.2520     2.9030    -0.2570 ca         1 8J6      -0.093000
     19 C8           4.6460     2.9180    -0.0990 ca         1 8J6      -0.119000
     20 C7           5.3520     1.7190     0.0720 ca         1 8J6      -0.093000
     21 C11          3.2680     0.4820    -0.0710 ca         1 8J6      -0.065000
     22 C6           4.6780     0.4750     0.0900 cp         1 8J6      -0.043000
     23 C3           5.4290    -0.8080     0.2740 cp         1 8J6      -0.032000
     24 C2           4.8700    -1.8870     1.0060 ca         1 8J6      -0.099500
     25 C1           5.5750    -3.0910     1.1800 ca         1 8J6      -0.112000
     26 C4           6.7240    -0.9850    -0.2770 ca         1 8J6      -0.099500
     27 C5           7.4290    -2.1880    -0.1050 ca         1 8J6      -0.112000
     28 C            6.8550    -3.2420     0.6240 ca         1 8J6      -0.109000
     29 H1          -5.3830     1.6420    -0.3040 hc         1 8J6       0.038617
     30 H2          -6.8130     1.4170     0.7120 hc         1 8J6       0.038617
     31 H3          -5.3640     2.1940     1.3570 hc         1 8J6       0.038617
     32 H4          -3.1520     0.8040     1.4310 hc         1 8J6       0.055450
     33 H5          -3.2490    -0.9350     1.6410 hc         1 8J6       0.055450
     34 H6          -6.6310    -0.0030     2.8560 hc         1 8J6       0.038617
     35 H7          -5.2470    -1.0740     3.1130 hc         1 8J6       0.038617
     36 H8          -5.0540     0.6740     3.2880 hc         1 8J6       0.038617
     37 H9          -6.9130    -0.8850     0.4610 hn         1 8J6       0.420000
     38 H11         -5.6050     0.3150    -2.0110 hc         1 8J6       0.038617
     39 H12         -5.8950    -1.1380    -2.9430 hc         1 8J6       0.038617
     40 H13         -7.1300    -0.5590    -1.8230 hc         1 8J6       0.038617
     41 H14         -7.1010    -3.0000    -0.9930 hc         1 8J6       0.038617
     42 H15         -5.7090    -3.4180    -2.0020 hc         1 8J6       0.038617
     43 H16         -5.6470    -3.6860    -0.2570 hc         1 8J6       0.038617
     44 H17         -3.4890    -2.4640    -0.3380 hc         1 8J6       0.055450
     45 H18         -3.5680    -1.8200    -1.9690 hc         1 8J6       0.055450
     46 H19         -3.5790     0.5140    -1.0450 h1         1 8J6       0.064700
     47 H20         -1.2210    -1.2420    -0.3070 hn         1 8J6       0.492000
     48 H21          0.5550     3.8150    -0.6400 h4         1 8J6       0.159000
     49 H22          2.7360     3.8500    -0.3860 ha         1 8J6       0.111000
     50 H23          5.1820     3.8650    -0.1060 ha         1 8J6       0.112000
     51 H24          6.4310     1.7560     0.2060 ha         1 8J6       0.114000
     52 H25          2.7420    -0.4680    -0.0750 ha         1 8J6       0.138000
     53 H26          3.8860    -1.7870     1.4570 ha         1 8J6       0.115000
     54 H27          5.1300    -3.9050     1.7470 ha         1 8J6       0.111500
     55 H28          7.1810    -0.1860    -0.8550 ha         1 8J6       0.115000
     56 H29          8.4200    -2.3040    -0.5390 ha         1 8J6       0.111500
     57 H30          7.4010    -4.1740     0.7570 ha         1 8J6       0.111000
@<TRIPOS>BOND
     1     1     2 1   
     2     1    29 1   
     3     1    30 1   
     4     1    31 1   
     5     2     3 1   
     6     2     4 1   
     7     2     5 1   
     8     3    10 1   
     9     3    32 1   
    10     3    33 1   
    11     4    34 1   
    12     4    35 1   
    13     4    36 1   
    14     5     6 1   
    15     5    37 1   
    16     6     7 1   
    17     6     8 1   
    18     6     9 1   
    19     7    38 1   
    20     7    39 1   
    21     7    40 1   
    22     8    41 1   
    23     8    42 1   
    24     8    43 1   
    25     9    10 1   
    26     9    44 1   
    27     9    45 1   
    28    10    11 1   
    29    10    46 1   
    30    11    12 1   
    31    11    47 1   
    32    12    13 2   
    33    12    14 1   
    34    13    16 1   
    35    14    15 1   
    36    15    16 2   
    37    15    48 1   
    38    16    17 1   
    39    17    18 ar  
    40    17    21 ar  
    41    18    19 ar  
    42    18    49 1   
    43    19    20 ar  
    44    19    50 1   
    45    20    22 ar  
    46    20    51 1   
    47    21    22 ar  
    48    21    52 1   
    49    22    23 1   
    50    23    24 ar  
    51    23    26 ar  
    52    24    25 ar  
    53    24    53 1   
    54    25    28 ar  
    55    25    54 1   
    56    26    27 ar  
    57    26    55 1   
    58    27    28 ar  
    59    27    56 1   
    60    28    57 1   
@<TRIPOS>SUBSTRUCTURE
     1 8J6         1 TEMP              0 ****  ****    0 ROOT
