@<TRIPOS>MOLECULE
8J7
   46    48     1     0     0
SMALL
bcc


@<TRIPOS>ATOM
      1 C10         -3.2450     0.3830     0.3340 ca         1 8J7       0.457600
      2 C11         -5.2360    -2.7760    -0.4680 c3         1 8J7      -0.056800
      3 C12          0.5590     0.3400     0.6180 c3         1 8J7      -0.032100
      4 C13          1.2300     0.6090    -0.7380 c3         1 8J7      -0.029100
      5 C21          2.6620     1.0350    -0.5760 ca         1 8J7      -0.084300
      6 C22          2.9890     2.3810    -0.4160 ca         1 8J7      -0.122000
      7 C23          4.3060     2.7650    -0.2180 ca         1 8J7      -0.130000
      8 C24          5.3130     1.8090    -0.1740 ca         1 8J7      -0.128000
      9 C25          5.0110     0.4610    -0.3360 ca         1 8J7      -0.090300
     10 C26          3.6820     0.0900    -0.5310 ca         1 8J7      -0.102000
     11 C27          6.1000    -0.5800    -0.3200 c3         1 8J7       0.203100
     12 C29          6.7630    -2.7500     0.4910 c3         1 8J7       0.144100
     13 N02         -6.4380     1.8860     0.3780 nv         1 8J7      -0.955500
     14 C02         -5.4610     0.9520     0.2420 ca         1 8J7       0.681200
     15 N01         -4.2160     1.3230     0.4240 nb         1 8J7      -0.760000
     16 C03         -5.8310    -0.3950    -0.0530 ca         1 8J7      -0.298300
     17 C04         -4.8750    -1.3590    -0.1550 ca         1 8J7       0.007700
     18 C05         -3.5120    -0.9780     0.0470 ca         1 8J7      -0.190300
     19 C06         -2.4360    -1.8830    -0.0280 ca         1 8J7      -0.094000
     20 C07         -1.1460    -1.4620     0.1690 ca         1 8J7      -0.145000
     21 C08         -0.8650    -0.1090     0.4550 ca         1 8J7      -0.058300
     22 C09         -1.9070     0.7840     0.5320 ca         1 8J7      -0.186300
     23 N28          5.7410    -1.7240     0.4930 n7         1 8J7      -0.804200
     24 H1          -4.7310    -3.1210    -1.3720 hc         1 8J7       0.048033
     25 H2          -4.9390    -3.4470     0.3400 hc         1 8J7       0.048033
     26 H3          -6.3090    -2.8850    -0.6190 hc         1 8J7       0.048033
     27 H4           1.1320    -0.4240     1.1520 hc         1 8J7       0.052200
     28 H5           0.6020     1.2470     1.2250 hc         1 8J7       0.052200
     29 H6           1.1740    -0.2930    -1.3530 hc         1 8J7       0.050700
     30 H7           0.6660     1.3830    -1.2650 hc         1 8J7       0.050700
     31 H8           2.2060     3.1300    -0.4460 ha         1 8J7       0.130000
     32 H9           4.5510     3.8120    -0.0940 ha         1 8J7       0.129000
     33 H10          6.3400     2.1140    -0.0100 ha         1 8J7       0.126000
     34 H11          3.4420    -0.9600    -0.6530 ha         1 8J7       0.144000
     35 H12          6.2680    -0.9390    -1.3420 h1         1 8J7       0.035700
     36 H13          7.0470    -0.1100    -0.0090 h1         1 8J7       0.035700
     37 H14          6.8670    -3.1670    -0.5130 h1         1 8J7       0.029367
     38 H15          7.7560    -2.4000     0.8050 h1         1 8J7       0.029367
     39 H16          6.4700    -3.5630     1.1550 h1         1 8J7       0.029367
     40 H17         -6.1540     2.8520     0.3570 hn         1 8J7       0.419800
     41 H18         -7.3400     1.7000    -0.0250 hn         1 8J7       0.419800
     42 H19         -6.8770    -0.6390    -0.1960 ha         1 8J7       0.135000
     43 H20         -2.6240    -2.9280    -0.2400 ha         1 8J7       0.128000
     44 H21         -0.3320    -2.1740     0.1130 ha         1 8J7       0.131000
     45 H22         -1.7170     1.8290     0.7520 ha         1 8J7       0.145000
     46 H23          5.5850    -1.4120     1.4440 hn         1 8J7       0.355800
@<TRIPOS>BOND
     1     1    15 ar  
     2     1    18 ar  
     3     1    22 ar  
     4     2    17 1   
     5     2    24 1   
     6     2    25 1   
     7     2    26 1   
     8     3     4 1   
     9     3    21 1   
    10     3    27 1   
    11     3    28 1   
    12     4     5 1   
    13     4    29 1   
    14     4    30 1   
    15     5     6 ar  
    16     5    10 ar  
    17     6     7 ar  
    18     6    31 1   
    19     7     8 ar  
    20     7    32 1   
    21     8     9 ar  
    22     8    33 1   
    23     9    10 ar  
    24     9    11 1   
    25    10    34 1   
    26    11    23 1   
    27    11    35 1   
    28    11    36 1   
    29    12    23 1   
    30    12    37 1   
    31    12    38 1   
    32    12    39 1   
    33    13    14 1   
    34    13    40 1   
    35    13    41 1   
    36    14    15 ar  
    37    14    16 ar  
    38    16    17 ar  
    39    16    42 1   
    40    17    18 ar  
    41    18    19 ar  
    42    19    20 ar  
    43    19    43 1   
    44    20    21 ar  
    45    20    44 1   
    46    21    22 ar  
    47    22    45 1   
    48    23    46 1   
@<TRIPOS>SUBSTRUCTURE
     1 8J7         1 TEMP              0 ****  ****    0 ROOT
