@<TRIPOS>MOLECULE
8J7
   46    48     1     0     0
SMALL
No Charge or Current Charge


@<TRIPOS>ATOM
      1 C10         -3.3310     0.3640     0.3230 ca         1 8J7       0.327000
      2 C11         -5.4940    -2.7260    -0.5530 c3         1 8J7      -0.056800
      3 C12          0.4990     0.1240     0.5830 c3         1 8J7      -0.032100
      4 C13          1.1660     0.5830    -0.7300 c3         1 8J7      -0.029100
      5 C21          2.6240     0.9710    -0.5280 ca         1 8J7      -0.084300
      6 C22          2.9710     2.3040    -0.2370 ca         1 8J7      -0.104000
      7 C23          4.3170     2.6580    -0.0450 ca         1 8J7      -0.112000
      8 C24          5.3240     1.6830    -0.1420 ca         1 8J7      -0.110000
      9 C25          4.9890     0.3450    -0.4310 ca         1 8J7      -0.090300
     10 C26          3.6370    -0.0040    -0.6220 ca         1 8J7      -0.084000
     11 C27          6.0770    -0.7150    -0.5410 c3         1 8J7       0.203100
     12 C29          7.2810    -2.4690     0.7510 c3         1 8J7       0.144100
     13 N02         -6.3400     2.0360     0.4400 nv         1 8J7      -1.065900
     14 C02         -5.5330     0.9860     0.2810 ca         1 8J7       0.615900
     15 N01         -4.2690     1.3300     0.4600 nb         1 8J7      -0.760000
     16 C03         -5.9790    -0.2920    -0.0460 ca         1 8J7      -0.215000
     17 C04         -5.0320    -1.3160    -0.1970 ca         1 8J7       0.007700
     18 C05         -3.6690    -0.9790    -0.0070 ca         1 8J7      -0.125000
     19 C06         -2.6450    -1.9440    -0.1380 ca         1 8J7      -0.076000
     20 C07         -1.3020    -1.5860     0.0540 ca         1 8J7      -0.127000
     21 C08         -0.9590    -0.2640     0.3810 ca         1 8J7      -0.058300
     22 C09         -1.9770     0.6980     0.5100 ca         1 8J7      -0.103000
     23 N28          6.2210    -1.4430     0.7320 n7         1 8J7      -0.859400
     24 H1          -5.0580    -3.0550    -1.5040 hc         1 8J7       0.048033
     25 H2          -5.2030    -3.4440     0.2230 hc         1 8J7       0.048033
     26 H3          -6.5840    -2.7820    -0.6560 hc         1 8J7       0.048033
     27 H4           1.0620    -0.7230     0.9930 hc         1 8J7       0.052200
     28 H5           0.5770     0.9290     1.3240 hc         1 8J7       0.052200
     29 H6           1.0890    -0.2220    -1.4710 hc         1 8J7       0.050700
     30 H7           0.6020     1.4300    -1.1410 hc         1 8J7       0.050700
     31 H8           2.1980     3.0660    -0.1580 ha         1 8J7       0.112000
     32 H9           4.5800     3.6900     0.1790 ha         1 8J7       0.111000
     33 H10          6.3630     1.9660     0.0080 ha         1 8J7       0.108000
     34 H11          3.3750    -1.0370    -0.8400 ha         1 8J7       0.126000
     35 H12          5.8210    -1.4090    -1.3530 h1         1 8J7       0.035700
     36 H13          7.0250    -0.2300    -0.8150 h1         1 8J7       0.035700
     37 H14          7.0960    -3.2360    -0.0140 h1         1 8J7       0.029367
     38 H15          8.2650    -2.0200     0.5570 h1         1 8J7       0.029367
     39 H16          7.3200    -2.9660     1.7290 h1         1 8J7       0.029367
     40 H17         -5.8640     2.9300     0.4340 hn         1 8J7       0.475000
     41 H18         -7.2450     2.0040    -0.0150 hn         1 8J7       0.475000
     42 H19         -7.0400    -0.4840    -0.1780 ha         1 8J7       0.117000
     43 H20         -2.8730    -2.9770    -0.3900 ha         1 8J7       0.110000
     44 H21         -0.5250    -2.3400    -0.0540 ha         1 8J7       0.113000
     45 H22         -1.7170     1.7230     0.7590 ha         1 8J7       0.127000
     46 H23          6.4300    -0.7510     1.4630 hn         1 8J7       0.411000
@<TRIPOS>BOND
     1     1    15 ar  
     2     1    18 ar  
     3     1    22 ar  
     4     2    17 1   
     5     2    24 1   
     6     2    25 1   
     7     2    26 1   
     8     3     4 1   
     9     3    21 1   
    10     3    27 1   
    11     3    28 1   
    12     4     5 1   
    13     4    29 1   
    14     4    30 1   
    15     5     6 ar  
    16     5    10 ar  
    17     6     7 ar  
    18     6    31 1   
    19     7     8 ar  
    20     7    32 1   
    21     8     9 ar  
    22     8    33 1   
    23     9    10 ar  
    24     9    11 1   
    25    10    34 1   
    26    11    23 1   
    27    11    35 1   
    28    11    36 1   
    29    12    23 1   
    30    12    37 1   
    31    12    38 1   
    32    12    39 1   
    33    13    14 1   
    34    13    40 1   
    35    13    41 1   
    36    14    15 ar  
    37    14    16 ar  
    38    16    17 ar  
    39    16    42 1   
    40    17    18 ar  
    41    18    19 ar  
    42    19    20 ar  
    43    19    43 1   
    44    20    21 ar  
    45    20    44 1   
    46    21    22 ar  
    47    22    45 1   
    48    23    46 1   
@<TRIPOS>SUBSTRUCTURE
     1 8J7         1 TEMP              0 ****  ****    0 ROOT
