@<TRIPOS>MOLECULE
8J8
   65    67     1     0     0
SMALL
bcc


@<TRIPOS>ATOM
      1 O1          -3.1570    -2.8640    -0.1350 os         1 8J8      -0.314900
      2 C1           4.6670     0.1690     0.0510 ca         1 8J8      -0.055300
      3 C2           5.9400    -0.2520     0.4590 cp         1 8J8      -0.036000
      4 C3           7.1390     0.6140     0.3450 cp         1 8J8      -0.038000
      5 C4           8.2510     0.1810    -0.3750 ca         1 8J8      -0.117500
      6 C5           9.3960     0.9630    -0.4530 ca         1 8J8      -0.130500
      7 C6           9.4470     2.1900     0.1950 ca         1 8J8      -0.126000
      8 C7           8.3460     2.6300     0.9190 ca         1 8J8      -0.130500
      9 C8           7.2020     1.8490     0.9920 ca         1 8J8      -0.117500
     10 C9           6.1070    -1.5260     1.0010 ca         1 8J8      -0.112000
     11 O2          -8.7650     2.8190     1.5240 o          1 8J8      -0.609100
     12 C10          5.0270    -2.3740     1.1620 ca         1 8J8      -0.135000
     13 C11          3.7600    -1.9570     0.7800 ca         1 8J8      -0.096000
     14 C12          3.5760    -0.6970     0.2260 ca         1 8J8      -0.092300
     15 C13          2.2160    -0.2200    -0.2080 c3         1 8J8       0.188700
     16 C14         -0.0300    -0.9910    -0.2840 ca         1 8J8       0.223100
     17 C15         -0.9050    -2.0440    -0.0370 ca         1 8J8      -0.321000
     18 C16         -2.2500    -1.8960    -0.3530 ca         1 8J8       0.221100
     19 O3          -2.3560     1.4520    -1.6660 os         1 8J8      -0.314900
     20 C17         -2.7270    -4.1050     0.3880 c3         1 8J8       0.126700
     21 C18         -2.7420    -0.7190    -0.9350 ca         1 8J8      -0.194300
     22 C19         -4.2000    -0.5610    -1.2660 c3         1 8J8       0.234100
     23 C22         -9.2330     1.8650     0.9160 c          1 8J8       0.670100
     24 C23        -10.6990     1.7930     0.5630 c3         1 8J8      -0.181100
     25 C21         -7.0950     0.6310     0.8050 c3         1 8J8       0.093000
     26 C20         -6.3450     0.1720    -0.4370 c3         1 8J8       0.139800
     27 N           -4.9470    -0.0440    -0.1260 n7         1 8J8      -0.796200
     28 C24         -1.8380     0.3230    -1.1470 ca         1 8J8       0.221100
     29 C25         -1.5110     2.5580    -1.9110 c3         1 8J8       0.126700
     30 C26         -0.4800     0.2000    -0.8370 ca         1 8J8      -0.321000
     31 O            1.2550    -1.2150     0.0560 os         1 8J8      -0.322900
     32 H1           8.2170    -0.7730    -0.8880 ha         1 8J8       0.133500
     33 H2          10.2470     0.6120    -1.0220 ha         1 8J8       0.131000
     34 H3          10.3390     2.8000     0.1390 ha         1 8J8       0.131000
     35 H4           8.3800     3.5820     1.4330 ha         1 8J8       0.131000
     36 H5           6.3530     2.1960     1.5690 ha         1 8J8       0.133500
     37 H6           7.0940    -1.8440     1.3140 ha         1 8J8       0.135000
     38 H7           5.1670    -3.3570     1.5930 ha         1 8J8       0.134000
     39 H8           2.9210    -2.6240     0.9170 ha         1 8J8       0.148000
     40 H9           1.9620     0.7070     0.3220 h1         1 8J8       0.043200
     41 H10          2.2260     0.0200    -1.2790 h1         1 8J8       0.043200
     42 H11         -0.5140    -2.9530     0.3990 ha         1 8J8       0.146000
     43 H12         -2.0030    -4.5960    -0.2670 h1         1 8J8       0.042033
     44 H13         -2.2890    -4.0000     1.3840 h1         1 8J8       0.042033
     45 H14         -3.6140    -4.7300     0.4620 h1         1 8J8       0.042033
     46 H15         -8.9770     0.0410     0.0770 hn         1 8J8       0.307500
     47 H16         -4.3080     0.0750    -2.1550 h1         1 8J8       0.040700
     48 H17         -4.6280    -1.5280    -1.5370 h1         1 8J8       0.040700
     49 H18        -11.2770     1.6080     1.4690 hc         1 8J8       0.058700
     50 H19        -11.0250     2.7510     0.1590 hc         1 8J8       0.058700
     51 H20        -10.9370     1.0120    -0.1570 hc         1 8J8       0.058700
     52 H21         -6.6950     1.5830     1.1540 h1         1 8J8       0.063200
     53 H22         -6.9490    -0.0970     1.6090 h1         1 8J8       0.063200
     54 H23         -6.7670    -0.7760    -0.7850 h1         1 8J8       0.029700
     55 H24         -6.5050     0.9010    -1.2470 h1         1 8J8       0.029700
     56 H25         -4.5330     0.8400     0.1510 hn         1 8J8       0.355800
     57 H27         -2.1450     3.3440    -2.3130 h1         1 8J8       0.042033
     58 H28         -1.0380     2.9220    -0.9960 h1         1 8J8       0.042033
     59 H29         -0.7330     2.3260    -2.6420 h1         1 8J8       0.042033
     60 H30          0.1980     1.0200    -1.0170 ha         1 8J8       0.146000
     61 H31          3.9250     2.1970     0.0840 hc         1 8J8       0.045033
     62 H32          5.3730     1.9870    -0.8860 hc         1 8J8       0.045033
     63 H33          3.8270     1.4250    -1.4870 hc         1 8J8       0.045033
     64 C            4.4430     1.5100    -0.5900 c3         1 8J8      -0.055800
     65 N1          -8.5020     0.8060     0.5280 ns         1 8J8      -0.576900
@<TRIPOS>BOND
     1     1    18 1   
     2     1    20 1   
     3     2     3 ar  
     4     2    14 ar  
     5     2    64 1   
     6     3     4 1   
     7     3    10 ar  
     8     4     5 ar  
     9     4     9 ar  
    10     5     6 ar  
    11     5    32 1   
    12     6     7 ar  
    13     6    33 1   
    14     7     8 ar  
    15     7    34 1   
    16     8     9 ar  
    17     8    35 1   
    18     9    36 1   
    19    10    12 ar  
    20    10    37 1   
    21    11    23 2   
    22    12    13 ar  
    23    12    38 1   
    24    13    14 ar  
    25    13    39 1   
    26    14    15 1   
    27    15    31 1   
    28    15    40 1   
    29    15    41 1   
    30    16    17 ar  
    31    16    30 ar  
    32    16    31 1   
    33    17    18 ar  
    34    17    42 1   
    35    18    21 ar  
    36    19    28 1   
    37    19    29 1   
    38    20    43 1   
    39    20    44 1   
    40    20    45 1   
    41    21    22 1   
    42    21    28 ar  
    43    22    27 1   
    44    22    47 1   
    45    22    48 1   
    46    23    24 1   
    47    23    65 1   
    48    24    49 1   
    49    24    50 1   
    50    24    51 1   
    51    25    26 1   
    52    25    52 1   
    53    25    53 1   
    54    25    65 1   
    55    26    27 1   
    56    26    54 1   
    57    26    55 1   
    58    27    56 1   
    59    28    30 ar  
    60    29    57 1   
    61    29    58 1   
    62    29    59 1   
    63    30    60 1   
    64    46    65 1   
    65    61    64 1   
    66    62    64 1   
    67    63    64 1   
@<TRIPOS>SUBSTRUCTURE
     1 8J8         1 TEMP              0 ****  ****    0 ROOT
