@<TRIPOS>MOLECULE
8J8
   65    67     1     0     0
SMALL
No Charge or Current Charge


@<TRIPOS>ATOM
      1 O1          -3.0590    -3.1840     0.3580 os         1 8J8      -0.338100
      2 C1           4.6900     0.2030    -0.1900 ca         1 8J8      -0.055300
      3 C2           6.0120    -0.2530     0.1070 cp         1 8J8      -0.036000
      4 C3           7.1160     0.6720     0.5080 cp         1 8J8      -0.038000
      5 C4           8.3370     0.6900    -0.2080 ca         1 8J8      -0.099500
      6 C5           9.3860     1.5450     0.1730 ca         1 8J8      -0.112500
      7 C6           9.2350     2.3920     1.2830 ca         1 8J8      -0.108000
      8 C7           8.0360     2.3800     2.0150 ca         1 8J8      -0.112500
      9 C8           6.9880     1.5250     1.6320 ca         1 8J8      -0.099500
     10 C9           6.2940    -1.6350     0.0220 ca         1 8J8      -0.094000
     11 O2          -8.4290     2.7100    -0.8530 o          1 8J8      -0.609100
     12 C10          5.3020    -2.5570    -0.3290 ca         1 8J8      -0.117000
     13 C11          4.0000    -2.1130    -0.5900 ca         1 8J8      -0.078000
     14 C12          3.6730    -0.7420    -0.5120 ca         1 8J8      -0.092300
     15 C13          2.2290    -0.3050    -0.8050 c3         1 8J8       0.211900
     16 C14         -0.0570    -1.1830    -0.4870 ca         1 8J8       0.223100
     17 C15         -0.8540    -2.2210    -0.0010 ca         1 8J8      -0.303000
     18 C16         -2.2560    -2.1620    -0.1140 ca         1 8J8       0.221100
     19 O3          -2.6800     1.0880    -1.8080 os         1 8J8      -0.338100
     20 C17         -2.5270    -4.3560     0.9990 c3         1 8J8       0.149900
     21 C18         -2.8640    -1.0430    -0.7230 ca         1 8J8      -0.194300
     22 C19         -4.3800    -0.9600    -0.8660 c3         1 8J8       0.234100
     23 C22         -8.9950     2.1620     0.0810 c          1 8J8       0.603100
     24 C23        -10.5060     2.2130     0.2680 c3         1 8J8      -0.181100
     25 C21         -6.8630     1.2460     1.0690 c3         1 8J8       0.093000
     26 C20         -6.3850     0.2260     0.0070 c3         1 8J8       0.139800
     27 N           -4.9260     0.0120     0.0950 n7         1 8J8      -0.851400
     28 C24         -2.0570     0.0040    -1.2160 ca         1 8J8       0.221100
     29 C25         -1.9510     2.2050    -2.3460 c3         1 8J8       0.149900
     30 C26         -0.6550    -0.0670    -1.0970 ca         1 8J8      -0.303000
     31 O            1.3080    -1.3100    -0.3420 os         1 8J8      -0.346100
     32 H1           8.4650     0.0390    -1.0700 ha         1 8J8       0.115500
     33 H2          10.3160     1.5500    -0.3920 ha         1 8J8       0.113000
     34 H3          10.0470     3.0530     1.5790 ha         1 8J8       0.113000
     35 H4           7.9190     3.0310     2.8790 ha         1 8J8       0.113000
     36 H5           6.0680     1.5160     2.2120 ha         1 8J8       0.115500
     37 H6           7.2980    -1.9930     0.2400 ha         1 8J8       0.117000
     38 H7           5.5390    -3.6160    -0.3910 ha         1 8J8       0.116000
     39 H8           3.2410    -2.8450    -0.8580 ha         1 8J8       0.130000
     40 H9           2.0090     0.6420    -0.2990 h1         1 8J8       0.043200
     41 H10          2.1190    -0.1520    -1.8860 h1         1 8J8       0.043200
     42 H11         -0.3590    -3.0670     0.4630 ha         1 8J8       0.128000
     43 H12         -1.8620    -4.9040     0.3200 h1         1 8J8       0.042033
     44 H13         -1.9650    -4.0860     1.9030 h1         1 8J8       0.042033
     45 H14         -3.3400    -5.0300     1.2940 h1         1 8J8       0.042033
     46 H15         -8.8770     1.0420     1.7850 hn         1 8J8       0.307500
     47 H16         -4.6220    -0.6560    -1.8940 h1         1 8J8       0.040700
     48 H17         -4.8410    -1.9460    -0.7160 h1         1 8J8       0.040700
     49 H18        -10.7290     2.6100     1.2650 hc         1 8J8       0.058700
     50 H19        -11.0100     2.7860    -0.5180 hc         1 8J8       0.058700
     51 H20        -10.8910     1.1890     0.3340 hc         1 8J8       0.058700
     52 H21         -6.3620     2.2090     0.9050 h1         1 8J8       0.063200
     53 H22         -6.5790     0.8850     2.0670 h1         1 8J8       0.063200
     54 H23         -6.9160    -0.7220     0.1670 h1         1 8J8       0.029700
     55 H24         -6.6540     0.5940    -0.9920 h1         1 8J8       0.029700
     56 H25         -4.4560     0.9040    -0.0980 hn         1 8J8       0.411000
     57 H27         -2.6450     2.9440    -2.7660 h1         1 8J8       0.042033
     58 H28         -1.3610     2.7000    -1.5640 h1         1 8J8       0.042033
     59 H29         -1.2750     1.8810    -3.1480 h1         1 8J8       0.042033
     60 H30         -0.0360     0.7380    -1.4750 ha         1 8J8       0.128000
     61 H31          3.8720     2.0030     0.7340 hc         1 8J8       0.045033
     62 H32          5.2570     2.3230    -0.3220 hc         1 8J8       0.045033
     63 H33          3.7040     1.9690    -1.0320 hc         1 8J8       0.045033
     64 C            4.3640     1.7020    -0.1990 c3         1 8J8      -0.055800
     65 N1          -8.3170     1.4560     1.0480 ns         1 8J8      -0.509900
@<TRIPOS>BOND
     1     1    18 1   
     2     1    20 1   
     3     2     3 ar  
     4     2    14 ar  
     5     2    64 1   
     6     3     4 1   
     7     3    10 ar  
     8     4     5 ar  
     9     4     9 ar  
    10     5     6 ar  
    11     5    32 1   
    12     6     7 ar  
    13     6    33 1   
    14     7     8 ar  
    15     7    34 1   
    16     8     9 ar  
    17     8    35 1   
    18     9    36 1   
    19    10    12 ar  
    20    10    37 1   
    21    11    23 2   
    22    12    13 ar  
    23    12    38 1   
    24    13    14 ar  
    25    13    39 1   
    26    14    15 1   
    27    15    31 1   
    28    15    40 1   
    29    15    41 1   
    30    16    17 ar  
    31    16    30 ar  
    32    16    31 1   
    33    17    18 ar  
    34    17    42 1   
    35    18    21 ar  
    36    19    28 1   
    37    19    29 1   
    38    20    43 1   
    39    20    44 1   
    40    20    45 1   
    41    21    22 1   
    42    21    28 ar  
    43    22    27 1   
    44    22    47 1   
    45    22    48 1   
    46    23    24 1   
    47    23    65 1   
    48    24    49 1   
    49    24    50 1   
    50    24    51 1   
    51    25    26 1   
    52    25    52 1   
    53    25    53 1   
    54    25    65 1   
    55    26    27 1   
    56    26    54 1   
    57    26    55 1   
    58    27    56 1   
    59    28    30 ar  
    60    29    57 1   
    61    29    58 1   
    62    29    59 1   
    63    30    60 1   
    64    46    65 1   
    65    61    64 1   
    66    62    64 1   
    67    63    64 1   
@<TRIPOS>SUBSTRUCTURE
     1 8J8         1 TEMP              0 ****  ****    0 ROOT
