@<TRIPOS>MOLECULE
8J9
   63    64     1     0     0
SMALL
abcg2


@<TRIPOS>ATOM
      1 C14        -46.2850    63.1900   -15.1220 ca         1 8J9      -0.067000
      2 C12        -48.4200    64.5140   -15.4210 c3         1 8J9      -0.031100
      3 C13        -47.6690    63.2150   -15.3020 ca         1 8J9      -0.087300
      4 C15        -45.5790    62.0000   -15.0880 ca         1 8J9      -0.185500
      5 C16        -46.2480    60.7860   -15.2380 ca         1 8J9       0.094100
      6 C18        -47.6290    60.7890   -15.4060 ca         1 8J9      -0.185500
      7 C19        -48.3220    61.9920   -15.4340 ca         1 8J9      -0.067000
      8 C22        -52.1950    63.3340   -18.8990 c3         1 8J9       0.036500
      9 C23        -51.9030    62.2150   -17.8650 c          1 8J9       0.714000
     10 C26        -53.6310    63.2000   -19.4090 c3         1 8J9      -0.046400
     11 C01        -45.5860    61.7850   -20.0330 c3         1 8J9      -0.089100
     12 C02        -47.1020    61.8500   -20.1630 c3         1 8J9      -0.065400
     13 C04        -49.0840    63.2250   -21.0510 c3         1 8J9      -0.061400
     14 C05        -49.8860    63.2720   -19.7500 c3         1 8J9       0.104500
     15 C06        -49.4670    64.4860   -18.9160 c          1 8J9       0.578100
     16 C08        -48.3140    65.1390   -16.8240 c3         1 8J9      -0.022300
     17 C09        -46.8760    65.6530   -17.1160 c          1 8J9       0.714000
     18 C27        -54.6900    63.3420   -18.3140 c3         1 8J9      -0.042100
     19 C28        -56.0820    63.2350   -18.8690 ca         1 8J9      -0.039300
     20 C29        -56.7100    61.9950   -18.9740 ca         1 8J9      -0.111500
     21 C30        -57.9830    61.8820   -19.5150 ca         1 8J9      -0.122500
     22 C31        -58.6530    63.0130   -19.9640 ca         1 8J9      -0.143000
     23 C32        -58.0380    64.2550   -19.8680 ca         1 8J9      -0.122500
     24 C33        -56.7640    64.3620   -19.3240 ca         1 8J9      -0.111500
     25 N07        -48.8100    64.1910   -17.7900 ns         1 8J9      -0.442900
     26 N21        -51.3030    63.2610   -20.0490 n7         1 8J9      -0.840400
     27 O10        -46.2850    65.2090   -18.1140 o          1 8J9      -0.739500
     28 O11        -46.4510    66.4910   -16.2950 o          1 8J9      -0.739500
     29 O17        -45.5130    59.6540   -15.2070 oh         1 8J9      -0.562100
     30 O20        -49.7480    65.6280   -19.2650 o          1 8J9      -0.674100
     31 H141       -45.7460    64.1220   -15.0040 ha         1 8J9       0.148000
     32 H122       -48.0490    65.2400   -14.6980 hc         1 8J9       0.050700
     33 H121       -49.4750    64.3450   -15.1960 hc         1 8J9       0.050700
     34 H151       -44.5050    62.0060   -14.9460 ha         1 8J9       0.102000
     35 H181       -48.1690    59.8550   -15.5160 ha         1 8J9       0.102000
     36 H191       -49.3980    61.9730   -15.5690 ha         1 8J9       0.148000
     37 H221       -52.1150    64.3000   -18.3750 h1         1 8J9       0.028700
     38 H262       -53.8130    63.9660   -20.1710 hc         1 8J9       0.026700
     39 H261       -53.7380    62.2330   -19.9070 hc         1 8J9       0.026700
     40 H011       -45.2660    60.8730   -19.5300 hc         1 8J9       0.025367
     41 H013       -45.1020    61.8120   -21.0110 hc         1 8J9       0.025367
     42 H012       -45.2090    62.6310   -19.4550 hc         1 8J9       0.025367
     43 H021       -47.5370    61.7840   -19.1620 hc         1 8J9       0.033700
     44 H022       -47.4670    60.9730   -20.7070 hc         1 8J9       0.033700
     45 H031       -47.1080    63.1580   -21.8590 hc         1 8J9       0.049700
     46 H032       -47.1930    63.9880   -20.3260 hc         1 8J9       0.049700
     47 H042       -49.3120    64.1210   -21.6380 hc         1 8J9       0.031200
     48 H041       -49.4480    62.3730   -21.6310 hc         1 8J9       0.031200
     49 H051       -49.6700    62.3600   -19.1870 h1         1 8J9       0.087700
     50 H081       -48.9770    66.0080   -16.8430 h1         1 8J9       0.060700
     51 H272       -54.5440    62.5720   -17.5540 hc         1 8J9       0.063700
     52 H271       -54.5630    64.3050   -17.8120 hc         1 8J9       0.063700
     53 H291       -56.1950    61.1080   -18.6210 ha         1 8J9       0.118500
     54 H301       -58.4550    60.9100   -19.5830 ha         1 8J9       0.092500
     55 H311       -59.6470    62.9280   -20.3830 ha         1 8J9       0.088000
     56 H321       -58.5530    65.1430   -20.2110 ha         1 8J9       0.092500
     57 H331       -56.2940    65.3350   -19.2470 ha         1 8J9       0.118500
     58 H071       -48.5790    63.2220   -17.6340 hn         1 8J9       0.309500
     59 H1         -51.5130    64.0330   -20.6730 hn         1 8J9       0.381000
     60 H171       -46.0770    58.8830   -15.3270 ho         1 8J9       0.446000
     61 O24        -51.7980    61.0550   -18.3030 o          1 8J9      -0.733500
     62 C03        -47.5720    63.1180   -20.8690 c3         1 8J9      -0.082400
     63 O25        -51.8380    62.5740   -16.6690 o          1 8J9      -0.733500
@<TRIPOS>BOND
     1     1     3 ar  
     2     1     4 ar  
     3     1    31 1   
     4     2     3 1   
     5     2    16 1   
     6     2    32 1   
     7     2    33 1   
     8     3     7 ar  
     9     4     5 ar  
    10     4    34 1   
    11     5     6 ar  
    12     5    29 1   
    13     6     7 ar  
    14     6    35 1   
    15     7    36 1   
    16     8     9 1   
    17     8    10 1   
    18     8    26 1   
    19     8    37 1   
    20     9    61 1   
    21     9    63 1   
    22    10    18 1   
    23    10    38 1   
    24    10    39 1   
    25    11    12 1   
    26    11    40 1   
    27    11    41 1   
    28    11    42 1   
    29    12    43 1   
    30    12    44 1   
    31    12    62 1   
    32    13    14 1   
    33    13    47 1   
    34    13    48 1   
    35    13    62 1   
    36    14    15 1   
    37    14    26 1   
    38    14    49 1   
    39    15    25 1   
    40    15    30 2   
    41    16    17 1   
    42    16    25 1   
    43    16    50 1   
    44    17    27 1   
    45    17    28 1   
    46    18    19 1   
    47    18    51 1   
    48    18    52 1   
    49    19    20 ar  
    50    19    24 ar  
    51    20    21 ar  
    52    20    53 1   
    53    21    22 ar  
    54    21    54 1   
    55    22    23 ar  
    56    22    55 1   
    57    23    24 ar  
    58    23    56 1   
    59    24    57 1   
    60    25    58 1   
    61    26    59 1   
    62    29    60 1   
    63    45    62 1   
    64    46    62 1   
@<TRIPOS>SUBSTRUCTURE
     1 8J9         1 TEMP              0 ****  ****    0 ROOT
