@<TRIPOS>MOLECULE
8J9
   63    64     1     0     0
SMALL
No Charge or Current Charge


@<TRIPOS>ATOM
      1 C14        -45.8780    63.3160   -15.6270 ca         1 8J9      -0.067000
      2 C12        -48.0540    64.6030   -15.2900 c3         1 8J9      -0.031100
      3 C13        -47.2720    63.2960   -15.4250 ca         1 8J9      -0.087300
      4 C15        -45.1650    62.1120   -15.7700 ca         1 8J9      -0.185500
      5 C16        -45.8400    60.8850   -15.7140 ca         1 8J9       0.094100
      6 C18        -47.2280    60.8550   -15.5120 ca         1 8J9      -0.185500
      7 C19        -47.9440    62.0570   -15.3660 ca         1 8J9      -0.067000
      8 C22        -52.3670    62.9040   -18.8830 c3         1 8J9       0.036500
      9 C23        -52.1730    61.6340   -17.9520 c          1 8J9       0.714000
     10 C26        -53.8000    62.9960   -19.4750 c3         1 8J9      -0.046400
     11 C01        -45.4960    61.7770   -19.4790 c3         1 8J9      -0.089100
     12 C02        -47.0220    61.7860   -19.6870 c3         1 8J9      -0.065400
     13 C04        -49.0300    62.9830   -20.8460 c3         1 8J9      -0.061400
     14 C05        -49.9300    63.1180   -19.5890 c3         1 8J9       0.104500
     15 C06        -49.5880    64.4170   -18.7710 c          1 8J9       0.578100
     16 C08        -48.4480    65.2350   -16.6500 c3         1 8J9      -0.022300
     17 C09        -47.3140    66.1500   -17.2210 c          1 8J9       0.714000
     18 C27        -54.9140    63.0880   -18.4070 c3         1 8J9      -0.042100
     19 C28        -56.2950    63.2440   -19.0310 ca         1 8J9      -0.039300
     20 C29        -57.0300    62.1070   -19.4220 ca         1 8J9      -0.111500
     21 C30        -58.3030    62.2490   -20.0010 ca         1 8J9      -0.122500
     22 C31        -58.8480    63.5290   -20.1930 ca         1 8J9      -0.143000
     23 C32        -58.1200    64.6670   -19.8080 ca         1 8J9      -0.122500
     24 C33        -56.8470    64.5250   -19.2290 ca         1 8J9      -0.111500
     25 N07        -48.8750    64.1940   -17.6130 ns         1 8J9      -0.442900
     26 N21        -51.3690    63.0290   -20.0050 n7         1 8J9      -0.840400
     27 O10        -46.4490    65.6630   -17.9380 o          1 8J9      -0.739500
     28 O11        -47.3650    67.3460   -16.9650 o          1 8J9      -0.739500
     29 O17        -45.1450    59.7230   -15.8530 oh         1 8J9      -0.562100
     30 O20        -49.9540    65.5420   -19.1020 o          1 8J9      -0.674100
     31 H141       -45.3470    64.2650   -15.6790 ha         1 8J9       0.148000
     32 H122       -47.4880    65.3340   -14.6980 hc         1 8J9       0.050700
     33 H121       -48.9740    64.4160   -14.7230 hc         1 8J9       0.050700
     34 H151       -44.0900    62.1350   -15.9290 ha         1 8J9       0.102000
     35 H181       -47.7590    59.9070   -15.4680 ha         1 8J9       0.102000
     36 H191       -49.0210    62.0250   -15.2120 ha         1 8J9       0.148000
     37 H221       -52.2520    63.7770   -18.2270 h1         1 8J9       0.028700
     38 H262       -53.8640    63.8850   -20.1150 hc         1 8J9       0.026700
     39 H261       -53.9880    62.1300   -20.1220 hc         1 8J9       0.026700
     40 H011       -45.2010    60.9220   -18.8590 hc         1 8J9       0.025367
     41 H013       -44.9720    61.7020   -20.4390 hc         1 8J9       0.025367
     42 H012       -45.1690    62.6940   -18.9740 hc         1 8J9       0.025367
     43 H021       -47.5010    61.8280   -18.7020 hc         1 8J9       0.033700
     44 H022       -47.3240    60.8400   -20.1520 hc         1 8J9       0.033700
     45 H031       -46.9810    62.9230   -21.5290 hc         1 8J9       0.049700
     46 H032       -47.2060    63.9130   -20.1000 hc         1 8J9       0.049700
     47 H042       -49.2470    63.8130   -21.5300 hc         1 8J9       0.031200
     48 H041       -49.2950    62.0620   -21.3790 hc         1 8J9       0.031200
     49 H051       -49.7000    62.2660   -18.9350 h1         1 8J9       0.087700
     50 H081       -49.3080    65.8940   -16.4720 h1         1 8J9       0.060700
     51 H272       -54.8940    62.1920   -17.7760 hc         1 8J9       0.063700
     52 H271       -54.7040    63.9340   -17.7420 hc         1 8J9       0.063700
     53 H291       -56.6120    61.1120   -19.2780 ha         1 8J9       0.118500
     54 H301       -58.8650    61.3680   -20.3000 ha         1 8J9       0.092500
     55 H311       -59.8330    63.6390   -20.6410 ha         1 8J9       0.088000
     56 H321       -58.5410    65.6580   -19.9570 ha         1 8J9       0.092500
     57 H331       -56.2880    65.4110   -18.9350 ha         1 8J9       0.118500
     58 H071       -48.6030    63.2380   -17.4220 hn         1 8J9       0.309500
     59 H1         -51.5880    63.8810   -20.5330 hn         1 8J9       0.381000
     60 H171       -45.7760    58.9750   -15.7820 ho         1 8J9       0.446000
     61 O24        -52.5690    60.5390   -18.3350 o          1 8J9      -0.733500
     62 C03        -47.5040    62.9670   -20.5650 c3         1 8J9      -0.082400
     63 O25        -51.6220    61.7960   -16.8700 o          1 8J9      -0.733500
@<TRIPOS>BOND
     1     1     3 ar  
     2     1     4 ar  
     3     1    31 1   
     4     2     3 1   
     5     2    16 1   
     6     2    32 1   
     7     2    33 1   
     8     3     7 ar  
     9     4     5 ar  
    10     4    34 1   
    11     5     6 ar  
    12     5    29 1   
    13     6     7 ar  
    14     6    35 1   
    15     7    36 1   
    16     8     9 1   
    17     8    10 1   
    18     8    26 1   
    19     8    37 1   
    20     9    61 1   
    21     9    63 1   
    22    10    18 1   
    23    10    38 1   
    24    10    39 1   
    25    11    12 1   
    26    11    40 1   
    27    11    41 1   
    28    11    42 1   
    29    12    43 1   
    30    12    44 1   
    31    12    62 1   
    32    13    14 1   
    33    13    47 1   
    34    13    48 1   
    35    13    62 1   
    36    14    15 1   
    37    14    26 1   
    38    14    49 1   
    39    15    25 1   
    40    15    30 2   
    41    16    17 1   
    42    16    25 1   
    43    16    50 1   
    44    17    27 1   
    45    17    28 1   
    46    18    19 1   
    47    18    51 1   
    48    18    52 1   
    49    19    20 ar  
    50    19    24 ar  
    51    20    21 ar  
    52    20    53 1   
    53    21    22 ar  
    54    21    54 1   
    55    22    23 ar  
    56    22    55 1   
    57    23    24 ar  
    58    23    56 1   
    59    24    57 1   
    60    25    58 1   
    61    26    59 1   
    62    29    60 1   
    63    45    62 1   
    64    46    62 1   
@<TRIPOS>SUBSTRUCTURE
     1 8J9         1 TEMP              0 ****  ****    0 ROOT
