@<TRIPOS>MOLECULE
8JA
   39    39     1     0     0
SMALL
abcg2


@<TRIPOS>ATOM
      1 C10         63.9350     8.7340   -11.3080 c          1 8JA       0.613100
      2 C13         65.1110     6.4930   -11.3640 c3         1 8JA      -0.060400
      3 C15         64.8940     6.3390    -8.7960 c3         1 8JA      -0.075400
      4 C17         63.5070     4.6070    -7.5490 c3         1 8JA      -0.150400
      5 C02         62.4370    11.5250   -11.3840 c          1 8JA       0.587200
      6 C04         62.7360    13.4750    -9.8810 c          1 8JA       0.618000
      7 C07         63.2790    11.2550    -9.1390 cc         1 8JA      -0.007400
      8 C08         62.9280    10.6830   -10.3050 cd         1 8JA      -0.128600
      9 C12         63.7900     7.2450   -11.5110 c3         1 8JA      -0.160400
     10 C14         65.7820     6.6470    -9.9990 c3         1 8JA      -0.076400
     11 C16         64.3070     4.9320    -8.8030 c3         1 8JA      -0.067400
     12 C18         62.1850     5.3350    -7.4680 c          1 8JA       0.602100
     13 N03         62.4020    12.8760   -11.0700 ns         1 8JA      -0.470500
     14 N06         63.1750    12.5920    -8.9280 ns         1 8JA      -0.515600
     15 N09         63.0030     9.2970   -10.4980 ns         1 8JA      -0.423100
     16 N20         61.5750     5.3470    -6.2570 ns         1 8JA      -0.377400
     17 O05         62.6520    14.6680    -9.6920 o          1 8JA      -0.550000
     18 O11         64.8180     9.3900   -11.8320 o          1 8JA      -0.584100
     19 O19         61.6620     5.9070    -8.4110 o          1 8JA      -0.596100
     20 O21         61.9630     4.4760    -5.2750 oh         1 8JA      -0.442100
     21 H1          64.9170     5.4370   -11.5660 hc         1 8JA       0.049700
     22 H2          65.8050     6.8230   -12.1390 hc         1 8JA       0.049700
     23 H3          65.4900     6.4670    -7.8870 hc         1 8JA       0.037200
     24 H4          64.0910     7.0770    -8.7270 hc         1 8JA       0.037200
     25 H5          63.2890     3.5340    -7.5140 hc         1 8JA       0.067700
     26 H6          64.1060     4.8110    -6.6590 hc         1 8JA       0.067700
     27 H7          63.6520    10.6750    -8.3060 h4         1 8JA       0.210000
     28 H8          63.0350     6.8310   -10.8400 hc         1 8JA       0.068700
     29 H9          63.4060     7.0960   -12.5250 hc         1 8JA       0.068700
     30 H10         66.6600     5.9950    -9.9750 hc         1 8JA       0.044700
     31 H11         66.1670     7.6660    -9.8980 hc         1 8JA       0.044700
     32 H12         63.6850     4.7750    -9.6860 hc         1 8JA       0.050700
     33 H13         65.1240     4.2090    -8.8770 hc         1 8JA       0.050700
     34 H14         62.0650    13.4990   -11.7940 hn         1 8JA       0.344500
     35 H16         62.2830     8.7140   -10.0980 hn         1 8JA       0.334500
     36 H17         60.6010     5.6200    -6.2040 hn         1 8JA       0.330500
     37 H18         62.4270     5.0090    -4.6170 ho         1 8JA       0.451000
     38 H15         63.4370    12.9740    -8.0300 hn         1 8JA       0.463000
     39 O01         62.0780    11.1290   -12.4730 o          1 8JA      -0.507000
@<TRIPOS>BOND
     1     1     9 1   
     2     1    15 1   
     3     1    18 2   
     4     2     9 1   
     5     2    10 1   
     6     2    21 1   
     7     2    22 1   
     8     3    10 1   
     9     3    11 1   
    10     3    23 1   
    11     3    24 1   
    12     4    11 1   
    13     4    12 1   
    14     4    25 1   
    15     4    26 1   
    16     5     8 1   
    17     5    13 1   
    18     5    39 2   
    19     6    13 1   
    20     6    14 1   
    21     6    17 2   
    22     7     8 2   
    23     7    14 1   
    24     7    27 1   
    25     8    15 1   
    26     9    28 1   
    27     9    29 1   
    28    10    30 1   
    29    10    31 1   
    30    11    32 1   
    31    11    33 1   
    32    12    16 1   
    33    12    19 2   
    34    13    34 1   
    35    14    38 1   
    36    15    35 1   
    37    16    20 1   
    38    16    36 1   
    39    20    37 1   
@<TRIPOS>SUBSTRUCTURE
     1 8JA         1 TEMP              0 ****  ****    0 ROOT
