@<TRIPOS>MOLECULE
8JA
   39    39     1     0     0
SMALL
No Charge or Current Charge


@<TRIPOS>ATOM
      1 C10         63.8570     8.6710   -11.6960 c          1 8JA       0.613100
      2 C13         65.0540     6.4170   -11.4100 c3         1 8JA      -0.060400
      3 C15         64.6530     6.2610    -8.8160 c3         1 8JA      -0.075400
      4 C17         63.4870     4.3210    -7.5490 c3         1 8JA      -0.150400
      5 C02         62.9630    11.7400   -11.2880 c          1 8JA       0.587200
      6 C04         62.6920    13.2830    -9.4020 c          1 8JA       0.618000
      7 C07         62.8580    10.8820    -8.9550 cc         1 8JA      -0.007400
      8 C08         63.0220    10.6030   -10.2960 cd         1 8JA      -0.128600
      9 C12         63.7320     7.1430   -11.7730 c3         1 8JA      -0.160400
     10 C14         65.5880     6.6820    -9.9780 c3         1 8JA      -0.076400
     11 C16         64.3110     4.7510    -8.7880 c3         1 8JA      -0.067400
     12 C18         62.0990     4.9930    -7.5030 c          1 8JA       0.602100
     13 N03         62.8200    12.9720   -10.7150 ns         1 8JA      -0.470500
     14 N06         62.7060    12.2070    -8.5670 ns         1 8JA      -0.515600
     15 N09         63.1830     9.2500   -10.6320 ns         1 8JA      -0.423100
     16 N20         61.8530     5.9730    -6.5450 ns         1 8JA      -0.377400
     17 O05         62.5670    14.4230    -9.0020 o          1 8JA      -0.550000
     18 O11         64.5170     9.3000   -12.5100 o          1 8JA      -0.584100
     19 O19         61.2110     4.6730    -8.2800 o          1 8JA      -0.596100
     20 O21         62.7320     6.1890    -5.4140 oh         1 8JA      -0.442100
     21 H1          64.9200     5.3380   -11.5560 hc         1 8JA       0.049700
     22 H2          65.8270     6.7200   -12.1280 hc         1 8JA       0.049700
     23 H3          65.1430     6.5270    -7.8710 hc         1 8JA       0.037200
     24 H4          63.7290     6.8480    -8.8570 hc         1 8JA       0.037200
     25 H5          63.3340     3.2370    -7.6130 hc         1 8JA       0.067700
     26 H6          64.0770     4.5390    -6.6530 hc         1 8JA       0.067700
     27 H7          62.8560    10.1660    -8.1350 h4         1 8JA       0.210000
     28 H8          62.9320     6.7890   -11.1120 hc         1 8JA       0.068700
     29 H9          63.4780     6.8770   -12.8050 hc         1 8JA       0.068700
     30 H10         66.5440     6.1560    -9.8630 hc         1 8JA       0.044700
     31 H11         65.8190     7.7500    -9.8730 hc         1 8JA       0.044700
     32 H12         63.7530     4.4810    -9.6930 hc         1 8JA       0.050700
     33 H13         65.2430     4.1730    -8.8080 hc         1 8JA       0.050700
     34 H14         62.7860    13.7500   -11.3530 hn         1 8JA       0.344500
     35 H16         62.8300     8.5580    -9.9810 hn         1 8JA       0.334500
     36 H17         60.8870     6.2700    -6.4150 hn         1 8JA       0.330500
     37 H18         62.8090     7.1720    -5.3630 ho         1 8JA       0.451000
     38 H15         62.6000    12.4450    -7.5840 hn         1 8JA       0.463000
     39 O01         62.9860    11.6340   -12.5040 o          1 8JA      -0.507000
@<TRIPOS>BOND
     1     1     9 1   
     2     1    15 1   
     3     1    18 2   
     4     2     9 1   
     5     2    10 1   
     6     2    21 1   
     7     2    22 1   
     8     3    10 1   
     9     3    11 1   
    10     3    23 1   
    11     3    24 1   
    12     4    11 1   
    13     4    12 1   
    14     4    25 1   
    15     4    26 1   
    16     5     8 1   
    17     5    13 1   
    18     5    39 2   
    19     6    13 1   
    20     6    14 1   
    21     6    17 2   
    22     7     8 2   
    23     7    14 1   
    24     7    27 1   
    25     8    15 1   
    26     9    28 1   
    27     9    29 1   
    28    10    30 1   
    29    10    31 1   
    30    11    32 1   
    31    11    33 1   
    32    12    16 1   
    33    12    19 2   
    34    13    34 1   
    35    14    38 1   
    36    15    35 1   
    37    16    20 1   
    38    16    36 1   
    39    20    37 1   
@<TRIPOS>SUBSTRUCTURE
     1 8JA         1 TEMP              0 ****  ****    0 ROOT
