@<TRIPOS>MOLECULE
8JB
   28    28     1     0     0
SMALL
abcg2


@<TRIPOS>ATOM
      1 O3          51.0680    64.7290    16.3840 os         1 8JB      -0.306000
      2 C4          51.6360    66.2910    14.7410 c5         1 8JB      -0.146700
      3 C5          51.5500    66.0820    16.2490 c5         1 8JB       0.154300
      4 N2          50.5000    64.3160    15.1890 n2         1 8JB      -0.315700
      5 N3          50.7410    66.7750    18.4250 n8         1 8JB      -1.000200
      6 C           48.3920    63.9650    10.2380 c          1 8JB       0.719000
      7 O           47.5790    63.5550     9.3890 o          1 8JB      -0.733500
      8 CA          48.0590    63.6920    11.7220 c3         1 8JB       0.025500
      9 N           47.2590    62.4870    11.8580 n8         1 8JB      -1.011200
     10 CB          49.3180    63.5290    12.5650 c3         1 8JB       0.079600
     11 C3          50.7800    65.1540    14.2760 c2         1 8JB       0.321200
     12 C2          50.6340    67.0520    16.9990 c3         1 8JB      -0.002500
     13 C1          49.1830    67.0320    16.4390 c          1 8JB       0.698000
     14 O2          48.3410    66.3820    17.0870 o          1 8JB      -0.724000
     15 O1          48.9870    67.6670    15.3830 o          1 8JB      -0.724000
     16 H1          52.6520    66.1740    14.3550 hc         1 8JB       0.066200
     17 H2          51.2580    67.2580    14.4170 hc         1 8JB       0.066200
     18 H3          52.5340    66.1150    16.7210 h1         1 8JB       0.034700
     19 H4          50.3620    67.5650    18.9340 hn         1 8JB       0.382500
     20 H5          50.1020    66.0160    18.6320 hn         1 8JB       0.382500
     21 H7          47.5320    64.5900    12.0880 h1         1 8JB       0.031700
     22 H8          46.6880    62.5380    12.6910 hn         1 8JB       0.383500
     23 H9          46.6310    62.4380    11.0670 hn         1 8JB       0.383500
     24 H11         49.0500    63.2920    13.5940 h1         1 8JB       0.059200
     25 H12         49.9360    62.7170    12.1810 h1         1 8JB       0.059200
     26 H13         51.0540    68.0470    16.8170 h1         1 8JB       0.026700
     27 S           50.3030    65.0610    12.6030 ss         1 8JB      -0.176200
     28 O4          49.4390    64.6100    10.0280 o          1 8JB      -0.733500
@<TRIPOS>BOND
     1     1     3 1   
     2     1     4 1   
     3     2     3 1   
     4     2    11 1   
     5     2    16 1   
     6     2    17 1   
     7     3    12 1   
     8     3    18 1   
     9     4    11 2   
    10     5    12 1   
    11     5    19 1   
    12     5    20 1   
    13     6     7 1   
    14     6     8 1   
    15     6    28 1   
    16     8     9 1   
    17     8    10 1   
    18     8    21 1   
    19     9    22 1   
    20     9    23 1   
    21    10    24 1   
    22    10    25 1   
    23    10    27 1   
    24    11    27 1   
    25    12    13 1   
    26    12    26 1   
    27    13    14 1   
    28    13    15 1   
@<TRIPOS>SUBSTRUCTURE
     1 8JB         1 TEMP              0 ****  ****    0 ROOT
