@<TRIPOS>MOLECULE
8JB
   28    28     1     0     0
SMALL
No Charge or Current Charge


@<TRIPOS>ATOM
      1 O3          50.6160    64.9850    16.3020 os         1 8JB      -0.306000
      2 C4          50.5850    66.7650    14.7260 c5         1 8JB      -0.146700
      3 C5          51.1940    66.3050    16.0770 c5         1 8JB       0.154300
      4 N2          50.0070    64.5250    15.1070 n2         1 8JB      -0.315700
      5 N3          51.7890    66.7700    18.5010 n8         1 8JB      -1.000200
      6 C           49.2750    63.3660     9.9900 c          1 8JB       0.719000
      7 O           48.9280    63.9480     8.9700 o          1 8JB      -0.733500
      8 CA          48.2040    63.1940    11.1470 c3         1 8JB       0.025500
      9 N           47.4860    61.8600    11.2030 n8         1 8JB      -1.011200
     10 CB          48.8160    63.5480    12.5270 c3         1 8JB       0.079600
     11 C3          50.0230    65.4680    14.2410 c2         1 8JB       0.321200
     12 C2          50.9730    67.2390    17.3110 c3         1 8JB      -0.002500
     13 C1          49.4320    67.4910    17.5790 c          1 8JB       0.698000
     14 O2          48.8430    66.7450    18.3530 o          1 8JB      -0.724000
     15 O1          48.9430    68.5370    17.1740 o          1 8JB      -0.724000
     16 H1          51.3450    67.1630    14.0440 hc         1 8JB       0.066200
     17 H2          49.7970    67.5160    14.8320 hc         1 8JB       0.066200
     18 H3          52.2760    66.1640    15.9420 h1         1 8JB       0.034700
     19 H4          51.6290    67.4120    19.2870 hn         1 8JB       0.382500
     20 H5          51.3750    65.8900    18.8350 hn         1 8JB       0.382500
     21 H7          47.4250    63.9430    10.9490 h1         1 8JB       0.031700
     22 H8          46.7150    61.9100    11.8800 hn         1 8JB       0.383500
     23 H9          47.0100    61.6960    10.3060 hn         1 8JB       0.383500
     24 H11         48.0640    63.4040    13.3130 h1         1 8JB       0.059200
     25 H12         49.6690    62.8930    12.7410 h1         1 8JB       0.059200
     26 H13         51.3930    68.2160    17.0330 h1         1 8JB       0.026700
     27 S           49.3720    65.3120    12.5800 ss         1 8JB      -0.176200
     28 O4          50.3840    62.8630    10.1230 o          1 8JB      -0.733500
@<TRIPOS>BOND
     1     1     3 1   
     2     1     4 1   
     3     2     3 1   
     4     2    11 1   
     5     2    16 1   
     6     2    17 1   
     7     3    12 1   
     8     3    18 1   
     9     4    11 2   
    10     5    12 1   
    11     5    19 1   
    12     5    20 1   
    13     6     7 1   
    14     6     8 1   
    15     6    28 1   
    16     8     9 1   
    17     8    10 1   
    18     8    21 1   
    19     9    22 1   
    20     9    23 1   
    21    10    24 1   
    22    10    25 1   
    23    10    27 1   
    24    11    27 1   
    25    12    13 1   
    26    12    26 1   
    27    13    14 1   
    28    13    15 1   
@<TRIPOS>SUBSTRUCTURE
     1 8JB         1 TEMP              0 ****  ****    0 ROOT
