@<TRIPOS>MOLECULE
8JC
   68    71     1     0     0
SMALL
abcg2


@<TRIPOS>ATOM
      1 C4          -2.5980     1.1950    -0.6610 ca         1 8JC       0.477900
      2 C5          -2.1730     2.5420    -0.8240 ca         1 8JC      -0.448300
      3 C6          -0.8140     2.7570    -0.6950 ca         1 8JC       0.223900
      4 N1           0.0700     1.8100    -0.4340 nb         1 8JC      -0.266000
      5 N3          -1.7190     0.2480    -0.4030 nb         1 8JC      -0.329000
      6 C2          -0.4310     0.5820    -0.3010 ca         1 8JC       0.444900
      7 CAA          2.4960    -3.5450    -1.6040 c3         1 8JC       0.151900
      8 CAB         10.6960    -0.0810    -0.7620 c3         1 8JC      -0.177100
      9 CAK         -4.4920    -2.7840    -1.1690 ca         1 8JC      -0.067000
     10 CAL         -5.7300    -2.9060    -0.5660 ca         1 8JC      -0.186000
     11 CAM         -3.8420    -1.5620    -1.2450 ca         1 8JC      -0.133000
     12 CAN          3.8420     0.5190     0.9940 ca         1 8JC      -0.186000
     13 CAO          2.4620     0.5520     0.8420 ca         1 8JC      -0.045000
     14 CAQ         -5.7060    -0.5490    -0.0800 ca         1 8JC      -0.179000
     15 CAR          3.9090    -1.5390    -0.2360 ca         1 8JC      -0.222000
     16 CAS        -10.5400    -1.0220     2.4310 c2         1 8JC      -0.221000
     17 CAT         -9.6500    -1.7230     1.7370 ce         1 8JC      -0.308200
     18 CAU          7.9980    -0.1970     1.9210 c6         1 8JC       0.093500
     19 CAV          8.1640    -1.3550    -0.1840 c6         1 8JC       0.093500
     20 CAW          6.6080     0.2930     1.5500 c6         1 8JC       0.175300
     21 CAX          6.7750    -0.8660    -0.5550 c6         1 8JC       0.175300
     22 CBI         -6.3520    -1.7810    -0.0190 ca         1 8JC       0.005000
     23 CBJ         -4.4550    -0.4440    -0.6880 ca         1 8JC       0.324000
     24 CBK          4.5900    -0.5310     0.4650 ca         1 8JC       0.314000
     25 CBM          1.7900    -0.4240     0.1280 ca         1 8JC       0.236000
     26 CBN          2.5380    -1.4840    -0.4180 ca         1 8JC       0.138100
     27 CBT         -3.0970     3.6520    -1.1580 c3         1 8JC       0.382300
     28 FAG         -2.4710     4.8270    -1.2470 f          1 8JC      -0.118000
     29 FAH         -3.7310     3.4580    -2.3280 f          1 8JC      -0.118000
     30 FAI         -4.0720     3.8020    -0.2380 f          1 8JC      -0.118000
     31 NBC         -3.9050     0.8460    -0.7640 nu         1 8JC      -0.935900
     32 NBD          0.3970    -0.4490    -0.0360 nu         1 8JC      -0.908900
     33 NBR          8.7950    -0.4310     0.7350 n          1 8JC      -0.417800
     34 NBS          5.9720    -0.6380     0.6400 nh         1 8JC      -0.786400
     35 OAE         10.4110     1.0240     1.3310 o          1 8JC      -0.603100
     36 OAF         -8.1430     0.0820     1.3740 o          1 8JC      -0.583100
     37 OBE          1.8270    -2.4160    -1.0780 os         1 8JC      -0.351100
     38 H1          -0.4060     3.7540    -0.8130 h4         1 8JC       0.034100
     39 H2           3.2420    -3.2660    -2.3520 h1         1 8JC       0.042033
     40 H3           2.9830    -4.1310    -0.8200 h1         1 8JC       0.042033
     41 H4           1.7360    -4.1590    -2.0790 h1         1 8JC       0.042033
     42 H5          10.1190     0.2230    -1.6360 hc         1 8JC       0.060367
     43 H6          11.6350     0.4670    -0.7670 hc         1 8JC       0.060367
     44 H7          10.9160    -1.1430    -0.8680 hc         1 8JC       0.060367
     45 H8          -4.0240    -3.6600    -1.5980 ha         1 8JC       0.114000
     46 H9          -6.2170    -3.8720    -0.5170 ha         1 8JC       0.110000
     47 H10         -2.8840    -1.4890    -1.7340 ha         1 8JC       0.137000
     48 H11          4.3170     1.3280     1.5300 ha         1 8JC       0.121000
     49 H12          1.9070     1.3700     1.2760 ha         1 8JC       0.138000
     50 H13         -6.1620     0.3320     0.3440 ha         1 8JC       0.151000
     51 H14          4.4670    -2.3820    -0.6190 ha         1 8JC       0.121000
     52 H15        -11.4430    -1.4820     2.8070 ha         1 8JC       0.178500
     53 H16        -10.3950     0.0290     2.6470 ha         1 8JC       0.178500
     54 H18         -9.8200    -2.7750     1.5370 ha         1 8JC       0.177000
     55 H20          8.4880     0.5350     2.5560 h1         1 8JC       0.061950
     56 H21          7.9160    -1.1310     2.4860 h1         1 8JC       0.061950
     57 H22          8.0880    -2.3380     0.2910 h1         1 8JC       0.061950
     58 H23          8.7530    -1.4740    -1.0890 h1         1 8JC       0.061950
     59 H24          6.0210     0.3630     2.4660 h1         1 8JC       0.047700
     60 H25          6.6800     1.3050     1.1230 h1         1 8JC       0.047700
     61 H26          6.8570     0.0560    -1.1510 h1         1 8JC       0.047700
     62 H27          6.3080    -1.6190    -1.1870 h1         1 8JC       0.047700
     63 H28         -7.9330    -2.9330     0.5270 hn         1 8JC       0.151000
     64 H29         -4.5890     1.5830    -0.7210 hn         1 8JC       0.515000
     65 H30         -0.0500    -1.3530    -0.0320 hn         1 8JC       0.524000
     66 NBB         -7.6010    -1.9810     0.5710 ns         1 8JC      -0.143000
     67 CBG          9.9600     0.2220     0.5220 c          1 8JC       0.609100
     68 CBH         -8.4050    -1.1000     1.2210 c          1 8JC       0.609300
@<TRIPOS>BOND
     1     1     2 ar  
     2     1     5 ar  
     3     1    31 1   
     4     2     3 ar  
     5     2    27 1   
     6     3     4 ar  
     7     3    38 1   
     8     4     6 ar  
     9     5     6 ar  
    10     6    32 1   
    11     7    37 1   
    12     7    39 1   
    13     7    40 1   
    14     7    41 1   
    15     8    42 1   
    16     8    43 1   
    17     8    44 1   
    18     8    67 1   
    19     9    10 ar  
    20     9    11 ar  
    21     9    45 1   
    22    10    22 ar  
    23    10    46 1   
    24    11    23 ar  
    25    11    47 1   
    26    12    13 ar  
    27    12    24 ar  
    28    12    48 1   
    29    13    25 ar  
    30    13    49 1   
    31    14    22 ar  
    32    14    23 ar  
    33    14    50 1   
    34    15    24 ar  
    35    15    26 ar  
    36    15    51 1   
    37    16    17 2   
    38    16    52 1   
    39    16    53 1   
    40    17    54 1   
    41    17    68 1   
    42    18    20 1   
    43    18    33 1   
    44    18    55 1   
    45    18    56 1   
    46    19    21 1   
    47    19    33 1   
    48    19    57 1   
    49    19    58 1   
    50    20    34 1   
    51    20    59 1   
    52    20    60 1   
    53    21    34 1   
    54    21    61 1   
    55    21    62 1   
    56    22    66 1   
    57    23    31 1   
    58    24    34 1   
    59    25    26 ar  
    60    25    32 1   
    61    26    37 1   
    62    27    28 1   
    63    27    29 1   
    64    27    30 1   
    65    31    64 1   
    66    32    65 1   
    67    33    67 1   
    68    35    67 2   
    69    36    68 2   
    70    63    66 1   
    71    66    68 1   
@<TRIPOS>SUBSTRUCTURE
     1 8JC         1 TEMP              0 ****  ****    0 ROOT
