@<TRIPOS>MOLECULE
8JC
   68    71     1     0     0
SMALL
No Charge or Current Charge


@<TRIPOS>ATOM
      1 C4          -2.6550     1.3190    -0.5010 ca         1 8JC       0.477900
      2 C5          -2.3710     2.6850    -0.6430 ca         1 8JC      -0.448300
      3 C6          -1.0120     3.0480    -0.6050 ca         1 8JC       0.223900
      4 N1          -0.0410     2.1390    -0.4250 nb         1 8JC      -0.266000
      5 N3          -1.6900     0.4110    -0.3100 nb         1 8JC      -0.329000
      6 C2          -0.4360     0.8670    -0.2750 ca         1 8JC       0.444900
      7 CAA          2.4450    -3.7540    -0.9530 c3         1 8JC       0.151900
      8 CAB         11.0440    -0.3440    -0.8600 c3         1 8JC      -0.177100
      9 CAK         -4.5820    -2.7280    -1.3030 ca         1 8JC      -0.067000
     10 CAL         -5.8500    -2.8940    -0.7270 ca         1 8JC      -0.186000
     11 CAM         -3.9390    -1.4820    -1.2340 ca         1 8JC      -0.133000
     12 CAN          4.0700     0.8490     0.6260 ca         1 8JC      -0.186000
     13 CAO          2.6740     0.9400     0.4840 ca         1 8JC      -0.045000
     14 CAQ         -5.8350    -0.5720    -0.0220 ca         1 8JC      -0.179000
     15 CAR          4.0050    -1.4630    -0.0920 ca         1 8JC      -0.222000
     16 CAS        -11.0000    -1.3470     2.1370 c2         1 8JC      -0.221000
     17 CAT         -9.9430    -1.9480     1.5340 ce         1 8JC      -0.308200
     18 CAU          8.2340    -0.2950     1.8890 c6         1 8JC       0.093500
     19 CAV          8.3250    -1.5160    -0.2530 c6         1 8JC       0.093500
     20 CAW          6.8890     0.3670     1.4780 c6         1 8JC       0.175300
     21 CAX          6.9800    -0.8730    -0.6980 c6         1 8JC       0.175300
     22 CBI         -6.4930    -1.8200    -0.0860 ca         1 8JC       0.005000
     23 CBJ         -4.5570    -0.4010    -0.5800 ca         1 8JC       0.324000
     24 CBK          4.7440    -0.3490     0.3330 ca         1 8JC       0.314000
     25 CBM          1.9230    -0.1670     0.0370 ca         1 8JC       0.236000
     26 CBN          2.6020    -1.3840    -0.2370 ca         1 8JC       0.138100
     27 CBT         -3.4540     3.7400    -0.8560 c3         1 8JC       0.382300
     28 FAG         -2.9570     4.9960    -0.9210 f          1 8JC      -0.118000
     29 FAH         -4.1320     3.5320    -2.0060 f          1 8JC      -0.118000
     30 FAI         -4.3610     3.7360     0.1480 f          1 8JC      -0.118000
     31 NBC         -3.9620     0.8610    -0.5010 nu         1 8JC      -0.935900
     32 NBD          0.5200    -0.1240    -0.1120 nu         1 8JC      -0.908900
     33 NBR          9.0620    -0.6360     0.6990 n          1 8JC      -0.417800
     34 NBS          6.1450    -0.4550     0.4720 nh         1 8JC      -0.786400
     35 OAE         10.6680     0.9540     1.1090 o          1 8JC      -0.603100
     36 OAF         -8.5460    -0.0360     1.2830 o          1 8JC      -0.583100
     37 OBE          1.8510    -2.4790    -0.6460 os         1 8JC      -0.351100
     38 H1          -0.6830     4.0800    -0.7200 h4         1 8JC       0.034100
     39 H2           3.1630    -3.6610    -1.7780 h1         1 8JC       0.042033
     40 H3           2.9640    -4.1640    -0.0780 h1         1 8JC       0.042033
     41 H4           1.6710    -4.4700    -1.2560 h1         1 8JC       0.042033
     42 H5          10.4280    -0.1710    -1.7500 hc         1 8JC       0.060367
     43 H6          11.9990     0.1870    -0.9380 hc         1 8JC       0.060367
     44 H7          11.1840    -1.4310    -0.8650 hc         1 8JC       0.060367
     45 H8          -4.0980    -3.5620    -1.8080 ha         1 8JC       0.114000
     46 H9          -6.3390    -3.8640    -0.7870 ha         1 8JC       0.110000
     47 H10         -2.9700    -1.3610    -1.7060 ha         1 8JC       0.137000
     48 H11          4.6230     1.7220     0.9600 ha         1 8JC       0.121000
     49 H12          2.1870     1.8750     0.7400 ha         1 8JC       0.138000
     50 H13         -6.2960     0.2750     0.4720 ha         1 8JC       0.151000
     51 H14          4.5350    -2.3870    -0.2910 ha         1 8JC       0.121000
     52 H15        -11.8870    -1.9090     2.4340 ha         1 8JC       0.178500
     53 H16        -11.0130    -0.2760     2.3520 ha         1 8JC       0.178500
     54 H18         -9.9700    -3.0190     1.3330 ha         1 8JC       0.177000
     55 H20          8.7750     0.3740     2.5710 h1         1 8JC       0.061950
     56 H21          8.0200    -1.2170     2.4470 h1         1 8JC       0.061950
     57 H22          8.1090    -2.4710     0.2470 h1         1 8JC       0.061950
     58 H23          8.9200    -1.7540    -1.1430 h1         1 8JC       0.061950
     59 H24          6.2800     0.5050     2.3840 h1         1 8JC       0.047700
     60 H25          7.0970     1.3650     1.0640 h1         1 8JC       0.047700
     61 H26          7.1980     0.0030    -1.3270 h1         1 8JC       0.047700
     62 H27          6.4410    -1.5960    -1.3270 h1         1 8JC       0.047700
     63 H28         -8.0790    -3.0260     0.3880 hn         1 8JC       0.151000
     64 H29         -4.6260     1.6110    -0.3380 hn         1 8JC       0.515000
     65 H30          0.1180    -1.0540    -0.2340 hn         1 8JC       0.524000
     66 NBB         -7.7800    -2.0640     0.4680 ns         1 8JC      -0.143000
     67 CBG         10.2490     0.0620     0.3820 c          1 8JC       0.609100
     68 CBH         -8.7010    -1.2370     1.0980 c          1 8JC       0.609300
@<TRIPOS>BOND
     1     1     2 ar  
     2     1     5 ar  
     3     1    31 1   
     4     2     3 ar  
     5     2    27 1   
     6     3     4 ar  
     7     3    38 1   
     8     4     6 ar  
     9     5     6 ar  
    10     6    32 1   
    11     7    37 1   
    12     7    39 1   
    13     7    40 1   
    14     7    41 1   
    15     8    42 1   
    16     8    43 1   
    17     8    44 1   
    18     8    67 1   
    19     9    10 ar  
    20     9    11 ar  
    21     9    45 1   
    22    10    22 ar  
    23    10    46 1   
    24    11    23 ar  
    25    11    47 1   
    26    12    13 ar  
    27    12    24 ar  
    28    12    48 1   
    29    13    25 ar  
    30    13    49 1   
    31    14    22 ar  
    32    14    23 ar  
    33    14    50 1   
    34    15    24 ar  
    35    15    26 ar  
    36    15    51 1   
    37    16    17 2   
    38    16    52 1   
    39    16    53 1   
    40    17    54 1   
    41    17    68 1   
    42    18    20 1   
    43    18    33 1   
    44    18    55 1   
    45    18    56 1   
    46    19    21 1   
    47    19    33 1   
    48    19    57 1   
    49    19    58 1   
    50    20    34 1   
    51    20    59 1   
    52    20    60 1   
    53    21    34 1   
    54    21    61 1   
    55    21    62 1   
    56    22    66 1   
    57    23    31 1   
    58    24    34 1   
    59    25    26 ar  
    60    25    32 1   
    61    26    37 1   
    62    27    28 1   
    63    27    29 1   
    64    27    30 1   
    65    31    64 1   
    66    32    65 1   
    67    33    67 1   
    68    35    67 2   
    69    36    68 2   
    70    63    66 1   
    71    66    68 1   
@<TRIPOS>SUBSTRUCTURE
     1 8JC         1 TEMP              0 ****  ****    0 ROOT
