@<TRIPOS>MOLECULE
8JD
   83    85     1     0     0
SMALL
No Charge or Current Charge


@<TRIPOS>ATOM
      1 N6A          6.4330     4.3810     3.9530 nv         1 8JD      -1.077900
      2 C6A          5.3520     4.5250     3.1400 ca         1 8JD       0.439900
      3 N1A          4.8260     5.7580     3.0780 nb         1 8JD      -0.323000
      4 C2A          3.7460     5.9010     2.2740 ca         1 8JD       0.156900
      5 N3A          3.1510     4.9330     1.5380 nb         1 8JD      -0.208000
      6 C4A          3.7000     3.7040     1.6230 ca         1 8JD       0.102500
      7 C5A          4.7950     3.4510     2.4110 ca         1 8JD      -0.089600
      8 N9A          3.3490     2.5230     1.0210 na         1 8JD      -0.298300
      9 N7A          5.1870     2.1170     2.3630 nc         1 8JD      -0.582100
     10 C8A          4.2800     1.5870     1.5170 cd         1 8JD       0.449700
     11 C1M         -8.2790     7.3610    -1.9890 c3         1 8JD      -0.079100
     12 CP          -7.4550     6.0800    -1.7800 c3         1 8JD       0.071600
     13 O3X          3.1130     2.2650    -3.5040 oh         1 8JD      -0.695000
     14 S1          -8.5170     4.7450    -1.0590 ss         1 8JD      -0.459000
     15 N4          -6.8610     1.1190     0.0510 ns         1 8JD      -0.514900
     16 C5          -6.5480     0.1670    -0.8950 c          1 8JD       0.601100
     17 O5          -7.0850     0.1300    -1.9940 o          1 8JD      -0.592100
     18 C6          -5.4590    -0.8190    -0.4780 c3         1 8JD      -0.178400
     19 C7          -6.0830    -2.1700    -0.0840 c3         1 8JD       0.118000
     20 C9          -4.2730    -3.9160    -0.3490 c          1 8JD       0.579100
     21 O9          -4.4400    -4.0010    -1.5590 o          1 8JD      -0.619100
     22 C11         -1.6990    -4.3820     0.1790 c3         1 8JD      -0.086000
     23 C14         -1.3720    -4.5930    -1.3320 c3         1 8JD      -0.087600
     24 C12         -0.8060    -5.3480     1.0530 c3         1 8JD       0.252600
     25 P1A          3.0830    -2.7220    -0.4070 p5         1 8JD       1.456800
     26 O2A          4.1880    -3.5460    -0.9840 o          1 8JD      -0.848000
     27 O1A          3.5010    -1.9360     0.7920 o          1 8JD      -0.848000
     28 O3A          1.7510    -3.5350    -0.2080 os         1 8JD      -0.701800
     29 O5X          2.5020    -1.7470    -1.5510 os         1 8JD      -0.562400
     30 C4X          2.4600     0.6940    -1.6610 c5         1 8JD       0.153300
     31 O4X          2.2220     0.8620    -0.2400 os         1 8JD      -0.408000
     32 C1X          2.2460     2.2740     0.0900 c5         1 8JD       0.315300
     33 C2X          2.3490     3.0370    -1.2810 c5         1 8JD       0.092300
     34 O2X          1.0810     3.2630    -1.9190 oh         1 8JD      -0.707000
     35 C3X          3.1810     2.0060    -2.0910 c5         1 8JD       0.083300
     36 P2A          1.7200    -4.3930     1.1120 p5         1 8JD       1.462800
     37 O4A          2.9700    -5.1680     1.3720 o          1 8JD      -0.845500
     38 O5A          1.2740    -3.6220     2.3110 o          1 8JD      -0.845500
     39 O6A          0.5730    -5.4310     0.6460 os         1 8JD      -0.595400
     40 C10         -3.2090    -4.7640     0.4500 c3         1 8JD       0.097300
     41 O10         -3.4700    -4.7480     1.8840 oh         1 8JD      -0.691000
     42 C3          -7.8460     2.1900    -0.1350 c3         1 8JD       0.116000
     43 C2          -7.2690     3.3830    -0.9240 c3         1 8JD       0.040600
     44 H1           6.5980     5.0940     4.6580 hn         1 8JD       0.499000
     45 H2           6.7110     3.4300     4.1870 hn         1 8JD       0.499000
     46 H3           3.3090     6.8970     2.2140 h5         1 8JD       0.031100
     47 H4           4.2420     0.5460     1.2170 h5         1 8JD       0.111800
     48 H5          -9.1110     7.1760    -2.6830 hc         1 8JD       0.041367
     49 H6          -8.6920     7.7150    -1.0340 hc         1 8JD       0.041367
     50 H7          -7.6480     8.1550    -2.4090 hc         1 8JD       0.041367
     51 H8          -7.0450     5.7420    -2.7430 h1         1 8JD       0.057200
     52 H9          -6.6170     6.2870    -1.0980 h1         1 8JD       0.057200
     53 H10          3.8820     2.8390    -3.7400 ho         1 8JD       0.496000
     54 H11         -6.3600     1.0720     0.9330 hn         1 8JD       0.311500
     55 H12         -4.7750    -0.9800    -1.3220 hc         1 8JD       0.061200
     56 H13         -4.9090    -0.4290     0.3880 hc         1 8JD       0.061200
     57 H14         -6.8350    -2.0140     0.7040 h1         1 8JD       0.058200
     58 H15         -6.5920    -2.6200    -0.9500 h1         1 8JD       0.058200
     59 H16         -4.9230    -3.1570     1.4260 hn         1 8JD       0.321500
     60 H17         -1.5540    -2.7110     1.6240 hc         1 8JD       0.045367
     61 H18         -0.4840    -2.5310     0.2300 hc         1 8JD       0.045367
     62 H19         -2.1990    -2.2330     0.0440 hc         1 8JD       0.045367
     63 H20         -1.9220    -3.8900    -1.9670 hc         1 8JD       0.045367
     64 H21         -0.3100    -4.4330    -1.5450 hc         1 8JD       0.045367
     65 H22         -1.6250    -5.6130    -1.6490 hc         1 8JD       0.045367
     66 H23         -0.8740    -5.0600     2.1100 h1         1 8JD       0.014700
     67 H24         -1.2350    -6.3560     0.9840 h1         1 8JD       0.014700
     68 H26          1.4860     0.6140    -2.1640 h1         1 8JD       0.095700
     69 H27          1.3310     2.5600     0.6230 h2         1 8JD       0.107700
     70 H28          2.8920     3.9870    -1.1700 h1         1 8JD       0.056700
     71 H29          1.2610     3.0930    -2.8780 ho         1 8JD       0.519000
     72 H30          4.2270     1.9940    -1.7500 h1         1 8JD       0.052700
     73 H31          4.2340    -0.5530    -1.4630 h1         1 8JD       0.019700
     74 H32          3.4480    -0.6550    -3.0480 h1         1 8JD       0.019700
     75 H34         -3.3580    -5.7890     0.0850 h1         1 8JD       0.080700
     76 H35         -2.9490    -4.0130     2.2760 ho         1 8JD       0.465000
     77 H36         -8.7250     1.7890    -0.6620 h1         1 8JD       0.064700
     78 H37         -8.1780     2.5350     0.8550 h1         1 8JD       0.064700
     79 H38         -6.9730     3.0580    -1.9320 h1         1 8JD       0.065200
     80 H39         -6.3760     3.7640    -0.4060 h1         1 8JD       0.065200
     81 C13         -1.4700    -2.8810     0.5450 c3         1 8JD      -0.087600
     82 C5X          3.2600    -0.6020    -1.9680 c3         1 8JD       0.230600
     83 N8          -5.0690    -3.0940     0.4250 ns         1 8JD      -0.514900
@<TRIPOS>BOND
     1     1     2 1   
     2     1    44 1   
     3     1    45 1   
     4     2     3 ar  
     5     2     7 ar  
     6     3     4 ar  
     7     4     5 ar  
     8     4    46 1   
     9     5     6 ar  
    10     6     7 ar  
    11     6     8 1   
    12     7     9 1   
    13     8    10 1   
    14     8    32 1   
    15     9    10 2   
    16    10    47 1   
    17    11    12 1   
    18    11    48 1   
    19    11    49 1   
    20    11    50 1   
    21    12    14 1   
    22    12    51 1   
    23    12    52 1   
    24    13    35 1   
    25    13    53 1   
    26    14    43 1   
    27    15    16 1   
    28    15    42 1   
    29    15    54 1   
    30    16    17 2   
    31    16    18 1   
    32    18    19 1   
    33    18    55 1   
    34    18    56 1   
    35    19    57 1   
    36    19    58 1   
    37    19    83 1   
    38    20    21 2   
    39    20    40 1   
    40    20    83 1   
    41    22    23 1   
    42    22    24 1   
    43    22    40 1   
    44    22    81 1   
    45    23    63 1   
    46    23    64 1   
    47    23    65 1   
    48    24    39 1   
    49    24    66 1   
    50    24    67 1   
    51    25    26 1   
    52    25    27 1   
    53    25    28 1   
    54    25    29 1   
    55    28    36 1   
    56    29    82 1   
    57    30    31 1   
    58    30    35 1   
    59    30    68 1   
    60    30    82 1   
    61    31    32 1   
    62    32    33 1   
    63    32    69 1   
    64    33    34 1   
    65    33    35 1   
    66    33    70 1   
    67    34    71 1   
    68    35    72 1   
    69    36    37 1   
    70    36    38 1   
    71    36    39 1   
    72    40    41 1   
    73    40    75 1   
    74    41    76 1   
    75    42    43 1   
    76    42    77 1   
    77    42    78 1   
    78    43    79 1   
    79    43    80 1   
    80    59    83 1   
    81    60    81 1   
    82    61    81 1   
    83    62    81 1   
    84    73    82 1   
    85    74    82 1   
@<TRIPOS>SUBSTRUCTURE
     1 8JD         1 TEMP              0 ****  ****    0 ROOT
