@<TRIPOS>MOLECULE
8JD
   83    85     1     0     0
SMALL
abcg2


@<TRIPOS>ATOM
      1 N6A          4.9410     6.0490     2.8590 nv         1 8JD      -1.077900
      2 C6A          4.8860     5.5890     1.6090 ca         1 8JD       0.439900
      3 N1A          5.0910     6.4320     0.5910 nb         1 8JD      -0.323000
      4 C2A          5.0350     5.9710    -0.6560 ca         1 8JD       0.156900
      5 N3A          4.7980     4.7380    -1.0670 nb         1 8JD      -0.208000
      6 C4A          4.5980     3.9100    -0.0420 ca         1 8JD       0.102500
      7 C5A          4.6220     4.2400     1.3040 ca         1 8JD      -0.089600
      8 N9A          4.3270     2.5740    -0.0790 na         1 8JD      -0.298300
      9 N7A          4.3630     3.1410     2.0780 nc         1 8JD      -0.582100
     10 C8A          4.1900     2.1750     1.2220 cd         1 8JD       0.449700
     11 C1M        -11.1550     7.0810     0.8130 c3         1 8JD      -0.079100
     12 CP         -10.2670     5.8780     1.0800 c3         1 8JD       0.071600
     13 O3X          6.8830    -0.4620    -2.1150 oh         1 8JD      -0.695000
     14 S1         -10.4370     4.6790    -0.2750 ss         1 8JD      -0.459000
     15 N4          -8.4750     1.1380    -0.2610 ns         1 8JD      -0.514900
     16 C5          -7.1800     1.0610    -0.6110 c          1 8JD       0.601100
     17 O5          -6.6430     1.8640    -1.3620 o          1 8JD      -0.592100
     18 C6          -6.4170    -0.0960    -0.0040 c3         1 8JD      -0.178400
     19 C7          -5.6070    -0.8370    -1.0560 c3         1 8JD       0.118000
     20 C9          -4.1530    -2.7910    -1.1450 c          1 8JD       0.579100
     21 O9          -4.0660    -2.7350    -2.3650 o          1 8JD      -0.619100
     22 C11         -1.9280    -3.8680    -0.3940 c3         1 8JD      -0.086000
     23 C14         -1.4210    -4.0130    -1.8290 c3         1 8JD      -0.087600
     24 C12         -1.4530    -5.0870     0.4250 c3         1 8JD       0.252600
     25 P1A          3.5010    -3.6760     0.6680 p5         1 8JD       1.456800
     26 O2A          4.1840    -4.5770    -0.3120 o          1 8JD      -0.848000
     27 O1A          3.9620    -3.6210     2.0920 o          1 8JD      -0.848000
     28 O3A          1.8770    -3.8540     0.5810 os         1 8JD      -0.701800
     29 O5X          3.4660    -2.1450     0.0470 os         1 8JD      -0.562400
     30 C4X          4.6730    -0.4880    -1.1760 c5         1 8JD       0.153300
     31 O4X          3.6840     0.5200    -0.9610 os         1 8JD      -0.408000
     32 C1X          4.1690     1.7830    -1.2980 c5         1 8JD       0.315300
     33 C2X          5.5080     1.5720    -2.0030 c5         1 8JD       0.092300
     34 O2X          5.2410     1.3720    -3.3630 oh         1 8JD      -0.707000
     35 C3X          5.9830     0.2770    -1.3380 c5         1 8JD       0.083300
     36 P2A          1.0330    -4.9740     1.4490 p5         1 8JD       1.462800
     37 O4A          1.8920    -6.1840     1.6360 o          1 8JD      -0.845500
     38 O5A          0.3680    -4.3010     2.6070 o          1 8JD      -0.845500
     39 O6A         -0.0720    -5.3410     0.2950 os         1 8JD      -0.595400
     40 C10         -3.4780    -3.9090    -0.3410 c3         1 8JD       0.097300
     41 O10         -3.9700    -3.9540     0.9820 oh         1 8JD      -0.691000
     42 C3          -9.3500     2.2090    -0.6720 c3         1 8JD       0.116000
     43 C2          -9.3050     3.3830     0.3000 c3         1 8JD       0.040600
     44 H1           5.1180     7.0220     3.0350 hn         1 8JD       0.499000
     45 H2           4.7750     5.4440     3.6430 hn         1 8JD       0.499000
     46 H3           5.2090     6.7080    -1.4330 h5         1 8JD       0.031100
     47 H4           3.9460     1.1590     1.4860 h5         1 8JD       0.111800
     48 H5         -10.8810     7.5820    -0.1150 hc         1 8JD       0.041367
     49 H6         -12.2050     6.7940     0.7480 hc         1 8JD       0.041367
     50 H7         -11.0560     7.8020     1.6240 hc         1 8JD       0.041367
     51 H8          -9.2220     6.1820     1.1580 h1         1 8JD       0.057200
     52 H9         -10.5470     5.3960     2.0170 h1         1 8JD       0.057200
     53 H10          7.7730    -0.1280    -1.9620 ho         1 8JD       0.496000
     54 H11         -8.8440     0.4540     0.3790 hn         1 8JD       0.311500
     55 H12         -5.7470     0.3180     0.7560 hc         1 8JD       0.061200
     56 H13         -7.0890    -0.7880     0.5080 hc         1 8JD       0.061200
     57 H14         -6.2750    -1.2490    -1.8180 h1         1 8JD       0.058200
     58 H15         -4.9300    -0.1480    -1.5620 h1         1 8JD       0.058200
     59 H16         -4.9860    -2.0790     0.5520 hn         1 8JD       0.321500
     60 H17         -1.6210    -2.4440     1.2620 hc         1 8JD       0.045367
     61 H18         -0.3210    -2.4950     0.1000 hc         1 8JD       0.045367
     62 H19         -1.8230    -1.6940    -0.3230 hc         1 8JD       0.045367
     63 H20         -1.6500    -3.1400    -2.4350 hc         1 8JD       0.045367
     64 H21         -0.3380    -4.1340    -1.8230 hc         1 8JD       0.045367
     65 H22         -1.8510    -4.8880    -2.3230 hc         1 8JD       0.045367
     66 H23         -1.7200    -4.9720     1.4770 h1         1 8JD       0.014700
     67 H24         -1.9750    -5.9750     0.0510 h1         1 8JD       0.014700
     68 H26          4.4420    -1.0230    -2.1050 h1         1 8JD       0.095700
     69 H27          3.4560     2.3110    -1.9370 h2         1 8JD       0.107700
     70 H28          6.1980     2.4080    -1.8410 h1         1 8JD       0.056700
     71 H29          5.9410     0.8110    -3.7200 ho         1 8JD       0.519000
     72 H30          6.4040     0.5130    -0.3510 h1         1 8JD       0.052700
     73 H31          4.9210    -0.9510     0.9080 h1         1 8JD       0.019700
     74 H32          5.5360    -2.1560    -0.2210 h1         1 8JD       0.019700
     75 H34         -3.7990    -4.8430    -0.8170 h1         1 8JD       0.080700
     76 H35         -3.4080    -3.4270     1.5600 ho         1 8JD       0.465000
     77 H36         -9.0710     2.5360    -1.6730 h1         1 8JD       0.064700
     78 H37        -10.3640     1.8120    -0.7300 h1         1 8JD       0.064700
     79 H38         -8.2910     3.7830     0.3620 h1         1 8JD       0.065200
     80 H39         -9.6060     3.0550     1.2970 h1         1 8JD       0.065200
     81 C13         -1.4030    -2.5560     0.1970 c3         1 8JD      -0.087600
     82 C5X          4.7000    -1.4710    -0.0320 c3         1 8JD       0.230600
     83 N8          -4.8560    -1.9050    -0.4320 ns         1 8JD      -0.514900
@<TRIPOS>BOND
     1     1     2 1   
     2     1    44 1   
     3     1    45 1   
     4     2     3 ar  
     5     2     7 ar  
     6     3     4 ar  
     7     4     5 ar  
     8     4    46 1   
     9     5     6 ar  
    10     6     7 ar  
    11     6     8 1   
    12     7     9 1   
    13     8    10 1   
    14     8    32 1   
    15     9    10 2   
    16    10    47 1   
    17    11    12 1   
    18    11    48 1   
    19    11    49 1   
    20    11    50 1   
    21    12    14 1   
    22    12    51 1   
    23    12    52 1   
    24    13    35 1   
    25    13    53 1   
    26    14    43 1   
    27    15    16 1   
    28    15    42 1   
    29    15    54 1   
    30    16    17 2   
    31    16    18 1   
    32    18    19 1   
    33    18    55 1   
    34    18    56 1   
    35    19    57 1   
    36    19    58 1   
    37    19    83 1   
    38    20    21 2   
    39    20    40 1   
    40    20    83 1   
    41    22    23 1   
    42    22    24 1   
    43    22    40 1   
    44    22    81 1   
    45    23    63 1   
    46    23    64 1   
    47    23    65 1   
    48    24    39 1   
    49    24    66 1   
    50    24    67 1   
    51    25    26 1   
    52    25    27 1   
    53    25    28 1   
    54    25    29 1   
    55    28    36 1   
    56    29    82 1   
    57    30    31 1   
    58    30    35 1   
    59    30    68 1   
    60    30    82 1   
    61    31    32 1   
    62    32    33 1   
    63    32    69 1   
    64    33    34 1   
    65    33    35 1   
    66    33    70 1   
    67    34    71 1   
    68    35    72 1   
    69    36    37 1   
    70    36    38 1   
    71    36    39 1   
    72    40    41 1   
    73    40    75 1   
    74    41    76 1   
    75    42    43 1   
    76    42    77 1   
    77    42    78 1   
    78    43    79 1   
    79    43    80 1   
    80    59    83 1   
    81    60    81 1   
    82    61    81 1   
    83    62    81 1   
    84    73    82 1   
    85    74    82 1   
@<TRIPOS>SUBSTRUCTURE
     1 8JD         1 TEMP              0 ****  ****    0 ROOT
