@<TRIPOS>MOLECULE
8JE
   61    65     1     0     0
SMALL
abcg2


@<TRIPOS>ATOM
      1 C4          -4.0960     7.4410    24.4780 ca         1 8JE      -0.079000
      2 C5          -3.7220     7.1530    25.7870 ca         1 8JE      -0.083300
      3 C6          -3.2690     8.1890    26.6050 ca         1 8JE      -0.094000
      4 C8          -3.8280     5.7600    26.3670 c3         1 8JE       0.272900
      5 C10         -7.5240     5.6070    27.3170 ca         1 8JE      -0.133000
      6 C13         -4.9750     5.2710    28.5470 ca         1 8JE      -0.022000
      7 C15         -6.1500     5.1150    29.3000 ca         1 8JE      -0.236900
      8 C20          1.8740    14.4700    24.3730 ca         1 8JE      -0.126000
      9 C21         -0.3700    13.1500    25.4170 ca         1 8JE      -0.151600
     10 C22         -0.4000    14.5190    25.1280 ca         1 8JE      -0.048000
     11 C24          0.6440    16.6480    24.3330 cp         1 8JE      -0.048000
     12 C28          1.9240    13.1180    24.6440 ca         1 8JE       0.033100
     13 C1          -3.1910     9.4970    26.1410 ca         1 8JE      -0.115300
     14 C2          -3.5710     9.7720    24.8250 ca         1 8JE      -0.085000
     15 C3          -4.0180     8.7490    24.0020 ca         1 8JE      -0.118000
     16 O9          -3.7920     4.8120    25.2930 oh         1 8JE      -0.660000
     17 C11         -6.3530     5.7590    26.6080 ca         1 8JE      -0.047000
     18 C12         -5.0790     5.5920    27.2080 ca         1 8JE      -0.172300
     19 C14         -7.4080     5.2820    28.6760 ca         1 8JE      -0.027200
     20 C16         -6.4690     4.7980    30.6490 cc         1 8JE       0.360800
     21 N17         -7.7780     4.7730    30.8300 nd         1 8JE      -0.515100
     22 N18         -8.3500     5.0630    29.6340 na         1 8JE       0.061600
     23 N19         -1.5580    11.3140    26.4950 ns         1 8JE      -0.494900
     24 C23          0.7000    15.1970    24.6150 cp         1 8JE      -0.040000
     25 C25         -1.6330    12.5590    25.9830 c          1 8JE       0.618700
     26 O26         -2.6800    13.2140    25.9890 o          1 8JE      -0.623100
     27 C27          0.8110    12.4440    25.1680 ca         1 8JE       0.148100
     28 O29          3.0220    12.3340    24.4250 oh         1 8JE      -0.565100
     29 O30          0.9150    11.1070    25.4090 oh         1 8JE      -0.550100
     30 C31          1.7620    17.4640    24.5430 ca         1 8JE      -0.074000
     31 C32          1.7210    18.8280    24.2800 ca         1 8JE      -0.146500
     32 C33          0.5430    19.3710    23.8030 ca         1 8JE       0.168000
     33 C34         -0.5870    18.6050    23.5820 ca         1 8JE      -0.146500
     34 C35         -0.5270    17.2430    23.8490 ca         1 8JE      -0.074000
     35 F36          0.4940    20.7030    23.5410 f          1 8JE      -0.182000
     36 C37         -9.7880     5.1330    29.4880 c3         1 8JE       0.082900
     37 H1          -4.4400     6.6460    23.8310 ha         1 8JE       0.127000
     38 H2          -2.9670     7.9680    27.6240 ha         1 8JE       0.108000
     39 H3          -3.4860    11.3340    27.2180 h1         1 8JE       0.065700
     40 H4          -2.4140    10.1830    28.0140 h1         1 8JE       0.065700
     41 H5          -2.9650     5.6000    27.0210 h1         1 8JE       0.040700
     42 H6          -8.4880     5.7380    26.8450 ha         1 8JE       0.122000
     43 H7          -4.0020     5.1420    29.0040 ha         1 8JE       0.116000
     44 H9          -1.3150    15.0490    25.3420 ha         1 8JE       0.149000
     45 H10         -3.5090    10.7860    24.4480 ha         1 8JE       0.124000
     46 H11         -4.3100     8.9660    22.9820 ha         1 8JE       0.114000
     47 H12         -3.9610     3.9390    25.6680 ho         1 8JE       0.448000
     48 H13         -6.4020     6.0140    25.5570 ha         1 8JE       0.125000
     49 H14         -5.8020     4.5900    31.4710 h4         1 8JE       0.050800
     50 H15         -0.6860    10.8130    26.4100 hn         1 8JE       0.338500
     51 H16          3.7510    12.8570    24.0670 ho         1 8JE       0.479000
     52 H17          1.8150    10.8150    25.1950 ho         1 8JE       0.496000
     53 H18          2.6750    17.0350    24.9360 ha         1 8JE       0.120500
     54 H19          2.5830    19.4600    24.4490 ha         1 8JE       0.134500
     55 H20         -1.4890    19.0650    23.1990 ha         1 8JE       0.134500
     56 H21         -1.4000    16.6340    23.6600 ha         1 8JE       0.120500
     57 H22        -10.2360     4.8020    30.4210 h1         1 8JE       0.054700
     58 H23        -10.1050     6.1550    29.2740 h1         1 8JE       0.054700
     59 H24        -10.1160     4.4800    28.6780 h1         1 8JE       0.054700
     60 C7          -2.6980    10.6020    27.0480 c3         1 8JE       0.149300
     61 H8           2.7480    14.9510    23.9520 ha         1 8JE       0.119000
@<TRIPOS>BOND
     1     1     2 ar  
     2     1    15 ar  
     3     1    37 1   
     4     2     3 ar  
     5     2     4 1   
     6     3    13 ar  
     7     3    38 1   
     8     4    16 1   
     9     4    18 1   
    10     4    41 1   
    11     5    17 ar  
    12     5    19 ar  
    13     5    42 1   
    14     6     7 ar  
    15     6    18 ar  
    16     6    43 1   
    17     7    19 ar  
    18     7    20 1   
    19     8    12 ar  
    20     8    24 ar  
    21     8    61 1   
    22     9    10 ar  
    23     9    25 1   
    24     9    27 ar  
    25    10    24 ar  
    26    10    44 1   
    27    11    24 1   
    28    11    30 ar  
    29    11    34 ar  
    30    12    27 ar  
    31    12    28 1   
    32    13    14 ar  
    33    13    60 1   
    34    14    15 ar  
    35    14    45 1   
    36    15    46 1   
    37    16    47 1   
    38    17    18 ar  
    39    17    48 1   
    40    19    22 1   
    41    20    21 2   
    42    20    49 1   
    43    21    22 1   
    44    22    36 1   
    45    23    25 1   
    46    23    50 1   
    47    23    60 1   
    48    25    26 2   
    49    27    29 1   
    50    28    51 1   
    51    29    52 1   
    52    30    31 ar  
    53    30    53 1   
    54    31    32 ar  
    55    31    54 1   
    56    32    33 ar  
    57    32    35 1   
    58    33    34 ar  
    59    33    55 1   
    60    34    56 1   
    61    36    57 1   
    62    36    58 1   
    63    36    59 1   
    64    39    60 1   
    65    40    60 1   
@<TRIPOS>SUBSTRUCTURE
     1 8JE         1 TEMP              0 ****  ****    0 ROOT
