@<TRIPOS>MOLECULE
8JE
   61    65     1     0     0
SMALL
No Charge or Current Charge


@<TRIPOS>ATOM
      1 C4          -4.6270     7.0810    24.2700 ca         1 8JE      -0.079000
      2 C5          -4.0520     7.3810    25.5240 ca         1 8JE      -0.083300
      3 C6          -3.9130     8.7310    25.9080 ca         1 8JE      -0.094000
      4 C8          -3.5960     6.2780    26.4850 c3         1 8JE       0.272900
      5 C10         -6.8990     4.7670    27.8000 ca         1 8JE      -0.133000
      6 C13         -4.6360     6.1760    28.8040 ca         1 8JE      -0.022000
      7 C15         -5.6940     5.7760    29.6300 ca         1 8JE      -0.236900
      8 C20          1.5840    14.1930    24.0530 ca         1 8JE      -0.126000
      9 C21         -1.0110    13.3620    24.8650 ca         1 8JE      -0.151600
     10 C22         -0.5430    14.6750    25.1200 ca         1 8JE      -0.048000
     11 C24          1.2080    16.5080    25.0090 cp         1 8JE      -0.048000
     12 C28          1.1460    12.8880    23.7870 ca         1 8JE       0.033100
     13 C1          -4.3350     9.7700    25.0550 ca         1 8JE      -0.115300
     14 C2          -4.8990     9.4560    23.8050 ca         1 8JE      -0.085000
     15 C3          -5.0460     8.1150    23.4160 ca         1 8JE      -0.118000
     16 O9          -3.1000     5.1360    25.7810 oh         1 8JE      -0.660000
     17 C11         -5.8530     5.1520    26.9330 ca         1 8JE      -0.047000
     18 C12         -4.7180     5.8540    27.4270 ca         1 8JE      -0.172300
     19 C14         -6.7730     5.1040    29.1530 ca         1 8JE      -0.027200
     20 C16         -5.9270     5.9390    31.0460 cc         1 8JE       0.360800
     21 N17         -7.0950     5.3940    31.4280 nd         1 8JE      -0.515100
     22 N18         -7.6010     4.8820    30.2340 na         1 8JE       0.061600
     23 N19         -2.8620    11.7320    25.0960 ns         1 8JE      -0.494900
     24 C23          0.7460    15.1130    24.7240 cp         1 8JE      -0.040000
     25 C25         -2.4100    13.0030    25.3390 c          1 8JE       0.618700
     26 O26         -3.1240    13.8110    25.9190 o          1 8JE      -0.623100
     27 C27         -0.1390    12.4690    24.1870 ca         1 8JE       0.148100
     28 O29          1.9710    12.0090    23.1290 oh         1 8JE      -0.565100
     29 O30         -0.4780    11.1820    23.8840 oh         1 8JE      -0.550100
     30 C31          2.5580    16.7740    25.3600 ca         1 8JE      -0.074000
     31 C32          2.9920    18.0840    25.6290 ca         1 8JE      -0.146500
     32 C33          2.0860    19.1510    25.5500 ca         1 8JE       0.168000
     33 C34          0.7470    18.9170    25.2040 ca         1 8JE      -0.146500
     34 C35          0.3120    17.6060    24.9360 ca         1 8JE      -0.074000
     35 F36          2.5030    20.4090    25.8070 f          1 8JE      -0.182000
     36 C37         -8.8900     4.1780    30.1480 c3         1 8JE       0.082900
     37 H1          -4.7500     6.0480    23.9550 ha         1 8JE       0.127000
     38 H2          -3.4770     8.9730    26.8740 ha         1 8JE       0.108000
     39 H3          -4.9510    11.8370    25.0110 h1         1 8JE       0.065700
     40 H4          -4.2860    11.3050    26.5700 h1         1 8JE       0.065700
     41 H5          -2.7800     6.6910    27.0940 h1         1 8JE       0.040700
     42 H6          -7.7680     4.2310    27.4260 ha         1 8JE       0.122000
     43 H7          -3.7850     6.7170    29.2120 ha         1 8JE       0.116000
     44 H9          -1.1840    15.3740    25.6510 ha         1 8JE       0.149000
     45 H10         -5.2240    10.2500    23.1360 ha         1 8JE       0.124000
     46 H11         -5.4850     7.8750    22.4500 ha         1 8JE       0.114000
     47 H12         -2.9180     4.4570    26.4650 ho         1 8JE       0.448000
     48 H13         -5.9230     4.9050    25.8760 ha         1 8JE       0.125000
     49 H14         -5.3260     6.4150    31.8100 h4         1 8JE       0.050800
     50 H15         -2.2180    11.1180    24.6100 hn         1 8JE       0.338500
     51 H16          2.8210    12.4590    22.9220 ho         1 8JE       0.479000
     52 H17          0.3120    10.8150    23.4210 ho         1 8JE       0.496000
     53 H18          3.2700    15.9560    25.4390 ha         1 8JE       0.120500
     54 H19          4.0280    18.2730    25.9000 ha         1 8JE       0.134500
     55 H20          0.0510    19.7480    25.1410 ha         1 8JE       0.134500
     56 H21         -0.7260    17.4440    24.6560 ha         1 8JE       0.120500
     57 H22         -9.3560     4.1280    31.1390 h1         1 8JE       0.054700
     58 H23         -9.5550     4.7160    29.4620 h1         1 8JE       0.054700
     59 H24         -8.7260     3.1610    29.7730 h1         1 8JE       0.054700
     60 C7          -4.1730    11.2200    25.4810 c3         1 8JE       0.149300
     61 H8           2.5720    14.5060    23.7260 ha         1 8JE       0.119000
@<TRIPOS>BOND
     1     1     2 ar  
     2     1    15 ar  
     3     1    37 1   
     4     2     3 ar  
     5     2     4 1   
     6     3    13 ar  
     7     3    38 1   
     8     4    16 1   
     9     4    18 1   
    10     4    41 1   
    11     5    17 ar  
    12     5    19 ar  
    13     5    42 1   
    14     6     7 ar  
    15     6    18 ar  
    16     6    43 1   
    17     7    19 ar  
    18     7    20 1   
    19     8    12 ar  
    20     8    24 ar  
    21     8    61 1   
    22     9    10 ar  
    23     9    25 1   
    24     9    27 ar  
    25    10    24 ar  
    26    10    44 1   
    27    11    24 1   
    28    11    30 ar  
    29    11    34 ar  
    30    12    27 ar  
    31    12    28 1   
    32    13    14 ar  
    33    13    60 1   
    34    14    15 ar  
    35    14    45 1   
    36    15    46 1   
    37    16    47 1   
    38    17    18 ar  
    39    17    48 1   
    40    19    22 1   
    41    20    21 2   
    42    20    49 1   
    43    21    22 1   
    44    22    36 1   
    45    23    25 1   
    46    23    50 1   
    47    23    60 1   
    48    25    26 2   
    49    27    29 1   
    50    28    51 1   
    51    29    52 1   
    52    30    31 ar  
    53    30    53 1   
    54    31    32 ar  
    55    31    54 1   
    56    32    33 ar  
    57    32    35 1   
    58    33    34 ar  
    59    33    55 1   
    60    34    56 1   
    61    36    57 1   
    62    36    58 1   
    63    36    59 1   
    64    39    60 1   
    65    40    60 1   
@<TRIPOS>SUBSTRUCTURE
     1 8JE         1 TEMP              0 ****  ****    0 ROOT
