@<TRIPOS>MOLECULE
8JF
   39    41     1     0     0
SMALL
No Charge or Current Charge


@<TRIPOS>ATOM
      1 C01         -0.2650    -3.9880    -0.6220 ca         1 8JF      -0.189000
      2 C02         -1.6610    -4.0570    -0.7250 ca         1 8JF       0.375900
      3 N03         -2.4600    -2.9780    -0.5560 nb         1 8JF      -0.673000
      4 C04         -1.8870    -1.7870    -0.2730 ca         1 8JF       0.317000
      5 C05         -0.4900    -1.6320    -0.1410 ca         1 8JF      -0.159000
      6 C06          0.3390    -2.7580    -0.3260 ca         1 8JF      -0.026000
      7 C07         -2.6900    -0.6570    -0.1050 ca         1 8JF      -0.199000
      8 C08         -2.0890     0.5710     0.1650 ca         1 8JF       0.488900
      9 N09         -0.7670     0.7230     0.3310 nb         1 8JF      -0.667000
     10 C10          0.0310    -0.3490     0.1650 cp         1 8JF       0.475500
     11 C11          1.4930    -0.0990     0.3600 cp         1 8JF      -0.158500
     12 N12         -2.8640     1.7140     0.3990 ns         1 8JF      -0.332900
     13 C13          2.2600     0.6890    -0.5510 ca         1 8JF      -0.022300
     14 C14          3.6380     0.9200    -0.2930 ca         1 8JF      -0.081300
     15 C15          4.2440     0.3510     0.8440 ca         1 8JF      -0.097000
     16 C16          3.4980    -0.4350     1.7320 ca         1 8JF      -0.120000
     17 C17          2.1360    -0.6540     1.4930 ca         1 8JF      -0.095000
     18 C18          4.4970     1.7790    -1.2200 c3         1 8JF      -0.046800
     19 C19          1.6120     1.2860    -1.8070 c3         1 8JF      -0.054800
     20 C20         -2.6100     3.0360     0.1030 c          1 8JF       0.614100
     21 C21         -3.6900     3.9990     0.5840 c3         1 8JF      -0.184100
     22 O22         -1.6270     3.4270    -0.5130 o          1 8JF      -0.546100
     23 H1           0.3350    -4.8810    -0.7710 ha         1 8JF       0.127000
     24 H2          -2.1570    -4.9990    -0.9520 h4         1 8JF       0.019100
     25 H3           1.4230    -2.6910    -0.2500 ha         1 8JF       0.132000
     26 H4          -3.7680    -0.7310    -0.1920 ha         1 8JF       0.138000
     27 H5          -3.7490     1.5330     0.8520 hn         1 8JF       0.154000
     28 H6           5.3000     0.5200     1.0450 ha         1 8JF       0.111000
     29 H7           3.9750    -0.8680     2.6080 ha         1 8JF       0.114000
     30 H8           1.5640    -1.2560     2.1970 ha         1 8JF       0.115000
     31 H9           4.0180     2.7430    -1.4280 hc         1 8JF       0.042700
     32 H10          5.4780     1.9960    -0.7820 hc         1 8JF       0.042700
     33 H11          4.6720     1.2720    -2.1770 hc         1 8JF       0.042700
     34 H12          1.3100     2.3250    -1.6320 hc         1 8JF       0.051367
     35 H13          2.2910     1.2730    -2.6670 hc         1 8JF       0.051367
     36 H14          0.7220     0.7300    -2.1210 hc         1 8JF       0.051367
     37 H15         -3.8260     3.8700     1.6640 hc         1 8JF       0.062700
     38 H16         -3.4740     5.0410     0.3240 hc         1 8JF       0.062700
     39 H17         -4.6590     3.6750     0.1880 hc         1 8JF       0.062700
@<TRIPOS>BOND
     1     1     2 ar  
     2     1     6 ar  
     3     1    23 1   
     4     2     3 ar  
     5     2    24 1   
     6     3     4 ar  
     7     4     5 ar  
     8     4     7 ar  
     9     5     6 ar  
    10     5    10 ar  
    11     6    25 1   
    12     7     8 ar  
    13     7    26 1   
    14     8     9 ar  
    15     8    12 1   
    16     9    10 ar  
    17    10    11 1   
    18    11    13 ar  
    19    11    17 ar  
    20    12    20 1   
    21    12    27 1   
    22    13    14 ar  
    23    13    19 1   
    24    14    15 ar  
    25    14    18 1   
    26    15    16 ar  
    27    15    28 1   
    28    16    17 ar  
    29    16    29 1   
    30    17    30 1   
    31    18    31 1   
    32    18    32 1   
    33    18    33 1   
    34    19    34 1   
    35    19    35 1   
    36    19    36 1   
    37    20    21 1   
    38    20    22 2   
    39    21    37 1   
    40    21    38 1   
    41    21    39 1   
@<TRIPOS>SUBSTRUCTURE
     1 8JF         1 TEMP              0 ****  ****    0 ROOT
