@<TRIPOS>MOLECULE
8JF
   39    41     1     0     0
SMALL
bcc


@<TRIPOS>ATOM
      1 C01         -0.2720    -3.9940    -0.5610 ca         1 8JF      -0.272300
      2 C02         -1.6820    -4.0310    -0.5830 ca         1 8JF       0.441200
      3 N03         -2.4500    -2.9930    -0.3910 nb         1 8JF      -0.673000
      4 C04         -1.8530    -1.8010    -0.1470 ca         1 8JF       0.447600
      5 C05         -0.4460    -1.6580    -0.0790 ca         1 8JF      -0.289600
      6 C06          0.3470    -2.8020    -0.3100 ca         1 8JF      -0.044000
      7 C07         -2.6500    -0.6580     0.0190 ca         1 8JF      -0.347600
      8 C08         -2.0300     0.5460     0.2530 ca         1 8JF       0.554200
      9 N09         -0.7000     0.6810     0.3630 nb         1 8JF      -0.667000
     10 C10          0.0700    -0.3650     0.2000 cp         1 8JF       0.540800
     11 C11          1.5300    -0.1390     0.3480 cp         1 8JF      -0.158500
     12 N12         -2.8110     1.6860     0.4390 ns         1 8JF      -0.566400
     13 C13          2.2110     0.7090    -0.5340 ca         1 8JF      -0.022300
     14 C14          3.5740     0.9590    -0.3140 ca         1 8JF      -0.081300
     15 C15          4.2190     0.3470     0.7570 ca         1 8JF      -0.115000
     16 C16          3.5420    -0.5080     1.6140 ca         1 8JF      -0.138000
     17 C17          2.1950    -0.7490     1.4080 ca         1 8JF      -0.113000
     18 C18          4.3470     1.8790    -1.2150 c3         1 8JF      -0.046800
     19 C19          1.5070     1.3420    -1.7000 c3         1 8JF      -0.054800
     20 C20         -2.4980     2.9780     0.1170 c          1 8JF       0.681100
     21 C21         -3.6070     3.9610     0.3980 c3         1 8JF      -0.184100
     22 O22         -1.4400     3.3210    -0.3690 o          1 8JF      -0.546100
     23 H1           0.2930    -4.8960    -0.7490 ha         1 8JF       0.145000
     24 H2          -2.1830    -4.9740    -0.7760 h4         1 8JF       0.019100
     25 H3           1.4260    -2.7310    -0.2940 ha         1 8JF       0.150000
     26 H4          -3.7270    -0.7420    -0.0530 ha         1 8JF       0.156000
     27 H5          -3.7700     1.5100     0.6950 hn         1 8JF       0.320500
     28 H6           5.2720     0.5450     0.9220 ha         1 8JF       0.129000
     29 H7           4.0600    -0.9760     2.4410 ha         1 8JF       0.132000
     30 H8           1.6510    -1.3990     2.0820 ha         1 8JF       0.133000
     31 H9           3.8840     2.8650    -1.2820 hc         1 8JF       0.042700
     32 H10          5.3640     2.0150    -0.8510 hc         1 8JF       0.042700
     33 H11          4.4120     1.4910    -2.2340 hc         1 8JF       0.042700
     34 H12          1.1060     2.3230    -1.4380 hc         1 8JF       0.051367
     35 H13          2.1790     1.4750    -2.5460 hc         1 8JF       0.051367
     36 H14          0.6670     0.7430    -2.0450 hc         1 8JF       0.051367
     37 H15         -4.4430     3.5390     0.9520 hc         1 8JF       0.062700
     38 H16         -3.2080     4.8020     0.9640 hc         1 8JF       0.062700
     39 H17         -3.9830     4.3530    -0.5470 hc         1 8JF       0.062700
@<TRIPOS>BOND
     1     1     2 ar  
     2     1     6 ar  
     3     1    23 1   
     4     2     3 ar  
     5     2    24 1   
     6     3     4 ar  
     7     4     5 ar  
     8     4     7 ar  
     9     5     6 ar  
    10     5    10 ar  
    11     6    25 1   
    12     7     8 ar  
    13     7    26 1   
    14     8     9 ar  
    15     8    12 1   
    16     9    10 ar  
    17    10    11 1   
    18    11    13 ar  
    19    11    17 ar  
    20    12    20 1   
    21    12    27 1   
    22    13    14 ar  
    23    13    19 1   
    24    14    15 ar  
    25    14    18 1   
    26    15    16 ar  
    27    15    28 1   
    28    16    17 ar  
    29    16    29 1   
    30    17    30 1   
    31    18    31 1   
    32    18    32 1   
    33    18    33 1   
    34    19    34 1   
    35    19    35 1   
    36    19    36 1   
    37    20    21 1   
    38    20    22 2   
    39    21    37 1   
    40    21    38 1   
    41    21    39 1   
@<TRIPOS>SUBSTRUCTURE
     1 8JF         1 TEMP              0 ****  ****    0 ROOT
