@<TRIPOS>MOLECULE
8JG
   55    58     1     0     0
SMALL
abcg2


@<TRIPOS>ATOM
      1 C8           1.5000    -0.3180    -0.6250 c6         1 8JG      -0.004700
      2 C7           0.7880    -1.5970    -0.1980 c6         1 8JG      -0.094400
      3 C6          -0.6040    -1.6460    -0.8080 c6         1 8JG       0.174300
      4 C9           3.0430    -0.2900    -0.4510 c6         1 8JG      -0.165000
      5 C10          3.6670    -1.4790    -1.2010 c3         1 8JG      -0.063100
      6 C5          -2.8360    -0.4460    -1.0820 c5         1 8JG      -0.098400
      7 C4          -1.4790    -0.4970    -0.3240 c5         1 8JG      -0.024000
      8 O           -4.6710    -1.1730     0.3680 oh         1 8JG      -0.662000
      9 C1          -3.9200    -0.0370    -0.0560 c5         1 8JG       0.175000
     10 C2          -3.0950     0.3790     1.1740 c5         1 8JG      -0.052700
     11 C3          -1.9460    -0.6240     1.1350 c5         1 8JG      -0.062400
     12 C12          3.5550     0.9800    -1.1400 c6         1 8JG      -0.039400
     13 C17         -0.7320     0.8390    -0.5730 c6         1 8JG      -0.041700
     14 C18         -1.6300     2.0200    -0.1450 c6         1 8JG      -0.063400
     15 C19         -2.5100     1.7860     1.0860 c6         1 8JG      -0.065400
     16 C15          0.7520     0.9370    -0.0970 c6         1 8JG      -0.017000
     17 C14          1.3710     2.1710    -0.7880 c6         1 8JG      -0.064400
     18 C13          2.8860     2.2540    -0.6560 c6         1 8JG      -0.067400
     19 C11          3.5390    -0.4140     1.0150 c          1 8JG       0.724000
     20 O1          -1.2550    -2.8730    -0.5330 oh         1 8JG      -0.672000
     21 C           -4.8850     1.0180    -0.5800 c3         1 8JG      -0.106100
     22 H1           1.3720    -0.2730    -1.7200 hc         1 8JG       0.000700
     23 H2           1.3450    -2.4690    -0.5550 hc         1 8JG       0.064700
     24 H3           0.7370    -1.6880     0.8880 hc         1 8JG       0.064700
     25 H4          -0.4890    -1.5290    -1.9000 h1         1 8JG       0.010700
     26 H5           3.3410    -1.4950    -2.2450 hc         1 8JG       0.015700
     27 H6           4.7560    -1.3950    -1.2020 hc         1 8JG       0.015700
     28 H7           3.4160    -2.4380    -0.7520 hc         1 8JG       0.015700
     29 H8          -2.7960     0.2500    -1.9230 hc         1 8JG       0.042200
     30 H9          -3.0790    -1.4240    -1.5050 hc         1 8JG       0.042200
     31 H10         -5.0520    -1.5850    -0.4130 ho         1 8JG       0.429000
     32 H11         -3.7030     0.3040     2.0810 hc         1 8JG       0.056700
     33 H12         -2.3090    -1.6330     1.3290 hc         1 8JG       0.066200
     34 H13         -1.1790    -0.4130     1.8770 hc         1 8JG       0.066200
     35 H14          4.6380     1.0510    -1.0230 hc         1 8JG       0.020200
     36 H15          3.3680     0.8780    -2.2170 hc         1 8JG       0.020200
     37 H16         -0.6510     0.9120    -1.6670 hc         1 8JG       0.026700
     38 H17          0.6930     0.2100     1.9780 hc         1 8JG       0.040033
     39 H18          1.8890     1.4480     1.6930 hc         1 8JG       0.040033
     40 H19          0.2000     1.8880     1.7750 hc         1 8JG       0.040033
     41 H20         -1.0320     2.9180     0.0180 hc         1 8JG       0.027200
     42 H21         -2.2730     2.2700    -0.9920 hc         1 8JG       0.027200
     43 H22         -3.3070     2.5360     1.1010 hc         1 8JG       0.032700
     44 H23         -1.9300     1.9510     1.9980 hc         1 8JG       0.032700
     45 H24          1.1140     2.1380    -1.8540 hc         1 8JG       0.014700
     46 H25          0.9270     3.0910    -0.3970 hc         1 8JG       0.014700
     47 H26          3.1790     2.4460     0.3760 hc         1 8JG       0.038200
     48 H27          3.2480     3.1080    -1.2380 hc         1 8JG       0.038200
     49 H29         -0.6710    -3.5810    -0.8200 ho         1 8JG       0.435000
     50 H30         -5.6070     1.3050     0.1870 hc         1 8JG       0.032700
     51 H31         -4.3710     1.9190    -0.9120 hc         1 8JG       0.032700
     52 H32         -5.4410     0.6320    -1.4380 hc         1 8JG       0.032700
     53 C16          0.8880     1.1210     1.4170 c3         1 8JG      -0.080100
     54 O2           3.0970    -1.3750     1.6760 o          1 8JG      -0.734500
     55 O3           4.3930     0.4050     1.4190 o          1 8JG      -0.734500
@<TRIPOS>BOND
     1     1     2 1   
     2     1     4 1   
     3     1    16 1   
     4     1    22 1   
     5     2     3 1   
     6     2    23 1   
     7     2    24 1   
     8     3     7 1   
     9     3    20 1   
    10     3    25 1   
    11     4     5 1   
    12     4    12 1   
    13     4    19 1   
    14     5    26 1   
    15     5    27 1   
    16     5    28 1   
    17     6     7 1   
    18     6     9 1   
    19     6    29 1   
    20     6    30 1   
    21     7    11 1   
    22     7    13 1   
    23     8     9 1   
    24     8    31 1   
    25     9    10 1   
    26     9    21 1   
    27    10    11 1   
    28    10    15 1   
    29    10    32 1   
    30    11    33 1   
    31    11    34 1   
    32    12    18 1   
    33    12    35 1   
    34    12    36 1   
    35    13    14 1   
    36    13    16 1   
    37    13    37 1   
    38    14    15 1   
    39    14    41 1   
    40    14    42 1   
    41    15    43 1   
    42    15    44 1   
    43    16    17 1   
    44    16    53 1   
    45    17    18 1   
    46    17    45 1   
    47    17    46 1   
    48    18    47 1   
    49    18    48 1   
    50    19    54 1   
    51    19    55 1   
    52    20    49 1   
    53    21    50 1   
    54    21    51 1   
    55    21    52 1   
    56    38    53 1   
    57    39    53 1   
    58    40    53 1   
@<TRIPOS>SUBSTRUCTURE
     1 8JG         1 TEMP              0 ****  ****    0 ROOT
