@<TRIPOS>MOLECULE
8JG
   55    58     1     0     0
SMALL
No Charge or Current Charge


@<TRIPOS>ATOM
      1 C8           1.5810    -0.3630    -0.6700 c6         1 8JG      -0.004700
      2 C7           0.8900    -1.6810    -0.2300 c6         1 8JG      -0.094400
      3 C6          -0.5780    -1.7220    -0.7870 c6         1 8JG       0.174300
      4 C9           3.2130    -0.2880    -0.4580 c6         1 8JG      -0.165000
      5 C10          3.9840    -1.4610    -1.2010 c3         1 8JG      -0.063100
      6 C5          -2.9460    -0.5960    -1.0790 c5         1 8JG      -0.098400
      7 C4          -1.5470    -0.5420    -0.3310 c5         1 8JG      -0.024000
      8 O           -4.8100    -1.2190     0.3940 oh         1 8JG      -0.662000
      9 C1          -4.0270    -0.1070    -0.0430 c5         1 8JG       0.175000
     10 C2          -3.1520     0.4300     1.1450 c5         1 8JG      -0.052700
     11 C3          -2.0420    -0.6540     1.1520 c5         1 8JG      -0.062400
     12 C12          3.7320     1.0700    -1.1220 c6         1 8JG      -0.039400
     13 C17         -0.8050     0.8310    -0.6400 c6         1 8JG      -0.041700
     14 C18         -1.7130     2.0560    -0.2670 c6         1 8JG      -0.063400
     15 C19         -2.5660     1.8690     1.0180 c6         1 8JG      -0.065400
     16 C15          0.7750     0.9450    -0.1340 c6         1 8JG      -0.017000
     17 C14          1.4690     2.2740    -0.7500 c6         1 8JG      -0.064400
     18 C13          3.0130     2.3280    -0.5760 c6         1 8JG      -0.067400
     19 C11          3.6750    -0.3790     1.0590 c          1 8JG       0.724000
     20 O1          -1.1440    -3.0020    -0.4750 oh         1 8JG      -0.672000
     21 C           -5.0600     0.8990    -0.6120 c3         1 8JG      -0.106100
     22 H1           1.4600    -0.3400    -1.7620 hc         1 8JG       0.000700
     23 H2           1.4390    -2.5440    -0.6260 hc         1 8JG       0.064700
     24 H3           0.8780    -1.7930     0.8590 hc         1 8JG       0.064700
     25 H4          -0.4970    -1.6500    -1.8820 h1         1 8JG       0.010700
     26 H5           3.7280    -1.4920    -2.2670 hc         1 8JG       0.015700
     27 H6           5.0710    -1.3340    -1.1270 hc         1 8JG       0.015700
     28 H7           3.7450    -2.4440    -0.7780 hc         1 8JG       0.015700
     29 H8          -2.9410     0.0250    -1.9820 hc         1 8JG       0.042200
     30 H9          -3.1850    -1.6030    -1.4380 hc         1 8JG       0.042200
     31 H10         -5.4280    -1.4310    -0.3370 ho         1 8JG       0.429000
     32 H11         -3.7160     0.4270     2.0850 hc         1 8JG       0.056700
     33 H12         -2.4380    -1.6460     1.3950 hc         1 8JG       0.066200
     34 H13         -1.2800    -0.4510     1.9040 hc         1 8JG       0.066200
     35 H14          4.8180     1.1810    -1.0020 hc         1 8JG       0.020200
     36 H15          3.5640     1.0240    -2.2080 hc         1 8JG       0.020200
     37 H16         -0.7250     0.8690    -1.7360 hc         1 8JG       0.026700
     38 H17          0.7410     0.1370     1.9740 hc         1 8JG       0.040033
     39 H18          1.9170     1.3960     1.7600 hc         1 8JG       0.040033
     40 H19          0.2370     1.8270     1.8470 hc         1 8JG       0.040033
     41 H20         -1.1320     2.9800    -0.1790 hc         1 8JG       0.027200
     42 H21         -2.3880     2.2480    -1.1100 hc         1 8JG       0.027200
     43 H22         -3.3780     2.6080     1.0300 hc         1 8JG       0.032700
     44 H23         -1.9620     2.0860     1.9080 hc         1 8JG       0.032700
     45 H24          1.2390     2.3330    -1.8220 hc         1 8JG       0.014700
     46 H25          1.0440     3.1790    -0.2980 hc         1 8JG       0.014700
     47 H26          3.2850     2.4940     0.4720 hc         1 8JG       0.038200
     48 H27          3.3940     3.2090    -1.1110 hc         1 8JG       0.038200
     49 H29         -2.1060    -2.9290    -0.6500 ho         1 8JG       0.435000
     50 H30         -5.7520     1.2390     0.1690 hc         1 8JG       0.032700
     51 H31         -4.5840     1.7890    -1.0340 hc         1 8JG       0.032700
     52 H32         -5.6560     0.4470    -1.4140 hc         1 8JG       0.032700
     53 C16          0.9220     1.0750     1.4460 c3         1 8JG      -0.080100
     54 O2           3.3040    -1.3540     1.6950 o          1 8JG      -0.734500
     55 O3           4.6900     0.2210     1.3880 o          1 8JG      -0.734500
@<TRIPOS>BOND
     1     1     2 1   
     2     1     4 1   
     3     1    16 1   
     4     1    22 1   
     5     2     3 1   
     6     2    23 1   
     7     2    24 1   
     8     3     7 1   
     9     3    20 1   
    10     3    25 1   
    11     4     5 1   
    12     4    12 1   
    13     4    19 1   
    14     5    26 1   
    15     5    27 1   
    16     5    28 1   
    17     6     7 1   
    18     6     9 1   
    19     6    29 1   
    20     6    30 1   
    21     7    11 1   
    22     7    13 1   
    23     8     9 1   
    24     8    31 1   
    25     9    10 1   
    26     9    21 1   
    27    10    11 1   
    28    10    15 1   
    29    10    32 1   
    30    11    33 1   
    31    11    34 1   
    32    12    18 1   
    33    12    35 1   
    34    12    36 1   
    35    13    14 1   
    36    13    16 1   
    37    13    37 1   
    38    14    15 1   
    39    14    41 1   
    40    14    42 1   
    41    15    43 1   
    42    15    44 1   
    43    16    17 1   
    44    16    53 1   
    45    17    18 1   
    46    17    45 1   
    47    17    46 1   
    48    18    47 1   
    49    18    48 1   
    50    19    54 1   
    51    19    55 1   
    52    20    49 1   
    53    21    50 1   
    54    21    51 1   
    55    21    52 1   
    56    38    53 1   
    57    39    53 1   
    58    40    53 1   
@<TRIPOS>SUBSTRUCTURE
     1 8JG         1 TEMP              0 ****  ****    0 ROOT
