@<TRIPOS>MOLECULE
8JH
   61    61     1     0     0
SMALL
No Charge or Current Charge


@<TRIPOS>ATOM
      1 C10          7.9910    -3.4920     0.2060 c3         1 8JH       0.147800
      2 C11         -1.2330     1.5620     0.6010 c3         1 8JH      -0.251000
      3 C12         -3.3030     0.1680     1.0860 c          1 8JH       0.633100
      4 C13         -5.3930    -0.9920     1.1590 c3         1 8JH       0.231900
      5 C14         -6.6910    -1.0670     0.3660 ca         1 8JH      -0.082300
      6 C15         -6.8290    -1.9940    -0.6870 ca         1 8JH      -0.086000
      7 C16         -8.0290    -2.0640    -1.4170 ca         1 8JH      -0.122500
      8 C19         -7.7660    -0.2090     0.6770 ca         1 8JH      -0.086000
      9 P01          0.1380     0.5230    -0.1010 p5         1 8JH       1.358300
     10 C01          2.7560     1.2560    -0.3400 c3         1 8JH       0.179500
     11 N01          1.3790     1.5580     0.1540 n7         1 8JH      -0.978500
     12 O01          0.0240     0.2790    -1.5650 o          1 8JH      -0.821500
     13 C02          3.6840     2.4730    -0.0700 c3         1 8JH      -0.074400
     14 N02          3.6240    -1.0710    -0.6560 ns         1 8JH      -0.512900
     15 O02          3.6740    -0.1800     1.4440 o          1 8JH      -0.618100
     16 C03          3.2930     3.8020    -0.7800 c3         1 8JH      -0.056700
     17 N03          8.6070    -4.7960     0.5090 n8         1 8JH      -0.997200
     18 O03          0.4080    -0.6900     0.7130 o          1 8JH      -0.821500
     19 C04          4.2050     4.9620    -0.3180 c3         1 8JH      -0.088100
     20 N04         -2.6260     1.1000     0.3410 ns         1 8JH      -0.447900
     21 O04         -4.5230    -0.0440     0.5210 os         1 8JH      -0.471100
     22 C05          3.3010     3.6840    -2.3240 c3         1 8JH      -0.088100
     23 O05         -2.8770    -0.3770     2.0920 o          1 8JH      -0.551000
     24 C06          3.3890    -0.0580     0.2560 c          1 8JH       0.580100
     25 C07          4.2450    -2.3570    -0.3330 c3         1 8JH       0.104000
     26 C08          5.7800    -2.2500    -0.2220 c3         1 8JH      -0.096400
     27 C09          6.4560    -3.6020     0.0940 c3         1 8JH      -0.076400
     28 C17         -9.0970    -1.2080    -1.1010 ca         1 8JH      -0.114000
     29 C18         -8.9640    -0.2800    -0.0540 ca         1 8JH      -0.122500
     30 H1           8.2540    -2.7850     1.0050 h1         1 8JH       0.025200
     31 H2           8.4060    -3.1180    -0.7410 h1         1 8JH       0.025200
     32 H3          -1.0670     1.6260     1.6820 h1         1 8JH       0.055700
     33 H4          -1.1110     2.5640     0.1730 h1         1 8JH       0.055700
     34 H5          -5.6120    -0.6870     2.1910 h1         1 8JH       0.050700
     35 H6          -4.9270    -1.9860     1.1930 h1         1 8JH       0.050700
     36 H7          -6.0060    -2.6590    -0.9400 ha         1 8JH       0.120000
     37 H8          -8.1290    -2.7820    -2.2290 ha         1 8JH       0.105000
     38 H9          -7.6700     0.5140     1.4850 ha         1 8JH       0.120000
     39 H10          2.7250     1.1050    -1.4270 h1         1 8JH       0.082700
     40 H11          1.4020     1.4710     1.1680 hn         1 8JH       0.461000
     41 H12          3.7250     2.6470     1.0130 hc         1 8JH       0.030200
     42 H13          4.7040     2.2040    -0.3740 hc         1 8JH       0.030200
     43 H14          3.3420    -0.9020    -1.6150 hn         1 8JH       0.312500
     44 H15          2.2710     4.0610    -0.4760 hc         1 8JH       0.067700
     45 H16          8.4360    -5.4360    -0.2760 hn         1 8JH       0.387500
     46 H17          9.6290    -4.6890     0.5130 hn         1 8JH       0.387500
     47 H20          3.8930     5.9080    -0.7770 hc         1 8JH       0.027033
     48 H21          4.1560     5.0840     0.7710 hc         1 8JH       0.027033
     49 H22          5.2490     4.7730    -0.5960 hc         1 8JH       0.027033
     50 H23         -3.1210     1.4430    -0.4750 hn         1 8JH       0.319500
     51 H24          4.2830     3.3580    -2.6870 hc         1 8JH       0.027033
     52 H25          2.5470     2.9680    -2.6710 hc         1 8JH       0.027033
     53 H26          3.0700     4.6520    -2.7860 hc         1 8JH       0.027033
     54 H27          3.8290    -2.7290     0.6130 h1         1 8JH       0.048700
     55 H28          3.9850    -3.0760    -1.1210 h1         1 8JH       0.048700
     56 H29          6.1800    -1.8580    -1.1660 hc         1 8JH       0.039200
     57 H30          6.0380    -1.5270     0.5610 hc         1 8JH       0.039200
     58 H31          6.2000    -4.3240    -0.6910 hc         1 8JH       0.047700
     59 H32          6.0530    -3.9930     1.0370 hc         1 8JH       0.047700
     60 H33        -10.0240    -1.2630    -1.6660 ha         1 8JH       0.101000
     61 H34         -9.7900     0.3840     0.1910 ha         1 8JH       0.105000
@<TRIPOS>BOND
     1     1    17 1   
     2     1    27 1   
     3     1    30 1   
     4     1    31 1   
     5     2     9 1   
     6     2    20 1   
     7     2    32 1   
     8     2    33 1   
     9     3    20 1   
    10     3    21 1   
    11     3    23 2   
    12     4     5 1   
    13     4    21 1   
    14     4    34 1   
    15     4    35 1   
    16     5     6 ar  
    17     5     8 ar  
    18     6     7 ar  
    19     6    36 1   
    20     7    28 ar  
    21     7    37 1   
    22     8    29 ar  
    23     8    38 1   
    24     9    11 1   
    25     9    12 1   
    26     9    18 1   
    27    10    11 1   
    28    10    13 1   
    29    10    24 1   
    30    10    39 1   
    31    11    40 1   
    32    13    16 1   
    33    13    41 1   
    34    13    42 1   
    35    14    24 1   
    36    14    25 1   
    37    14    43 1   
    38    15    24 2   
    39    16    19 1   
    40    16    22 1   
    41    16    44 1   
    42    17    45 1   
    43    17    46 1   
    44    19    47 1   
    45    19    48 1   
    46    19    49 1   
    47    20    50 1   
    48    22    51 1   
    49    22    52 1   
    50    22    53 1   
    51    25    26 1   
    52    25    54 1   
    53    25    55 1   
    54    26    27 1   
    55    26    56 1   
    56    26    57 1   
    57    27    58 1   
    58    27    59 1   
    59    28    29 ar  
    60    28    60 1   
    61    29    61 1   
@<TRIPOS>SUBSTRUCTURE
     1 8JH         1 TEMP              0 ****  ****    0 ROOT
