@<TRIPOS>MOLECULE
8JH
   61    61     1     0     0
SMALL
bcc


@<TRIPOS>ATOM
      1 C10          8.2640    -3.3480    -1.3890 c3         1 8JH       0.147800
      2 C11         -1.1490     1.7500     0.5650 c3         1 8JH      -0.093200
      3 C12         -3.5250     1.2550     0.8890 c          1 8JH       0.749100
      4 C13         -5.7470     0.4500     0.9720 c3         1 8JH       0.208700
      5 C14         -6.6880    -0.2800     0.0600 ca         1 8JH      -0.082300
      6 C15         -6.4740    -1.6240    -0.2370 ca         1 8JH      -0.104000
      7 C16         -7.3250    -2.2990    -1.1000 ca         1 8JH      -0.140500
      8 C19         -7.7680     0.3760    -0.5190 ca         1 8JH      -0.104000
      9 P01         -0.1730     0.2130     0.8710 p5         1 8JH       1.200500
     10 C01          2.5360     0.6620     0.5630 c3         1 8JH       0.179500
     11 N01          1.3400     0.8310     1.3430 n7         1 8JH      -0.923300
     12 O01         -0.0160    -0.4790    -0.4640 o          1 8JH      -0.821500
     13 C02          3.3570     1.9550     0.4640 c3         1 8JH      -0.074400
     14 N02          4.1080    -1.1380     0.2090 ns         1 8JH      -0.579900
     15 O02          3.5470    -0.6210     2.3360 o          1 8JH      -0.618100
     16 C03          2.6190     3.1140    -0.2050 c3         1 8JH      -0.056700
     17 N03          9.1870    -4.4500    -1.1590 n8         1 8JH      -0.886800
     18 O03         -0.8160    -0.5040     2.0330 o          1 8JH      -0.821500
     19 C04          3.5060     4.3550    -0.2130 c3         1 8JH      -0.088100
     20 N04         -2.4700     1.4160     0.0730 ns         1 8JH      -0.514900
     21 O04         -4.5390     0.6630     0.2380 os         1 8JH      -0.447900
     22 C05          2.1710     2.7660    -1.6220 c3         1 8JH      -0.088100
     23 O05         -3.5950     1.6220     2.0450 o          1 8JH      -0.600000
     24 C06          3.4310    -0.4380     1.1310 c          1 8JH       0.647100
     25 C07          5.0800    -2.1700     0.4990 c3         1 8JH       0.104000
     26 C08          6.1800    -2.1870    -0.5510 c3         1 8JH      -0.096400
     27 C09          7.1710    -3.3220    -0.3320 c3         1 8JH      -0.076400
     28 C17         -8.4040    -1.6360    -1.6740 ca         1 8JH      -0.132000
     29 C18         -8.6260    -0.2980    -1.3810 ca         1 8JH      -0.140500
     30 H1           8.8310    -2.4140    -1.3400 h1         1 8JH       0.025200
     31 H2           7.7950    -3.3670    -2.3840 h1         1 8JH       0.025200
     32 H3          -1.2430     2.3450     1.4730 h1         1 8JH       0.055700
     33 H4          -0.6480     2.3780    -0.1750 h1         1 8JH       0.055700
     34 H5          -6.1780     1.4040     1.2850 h1         1 8JH       0.050700
     35 H6          -5.5430    -0.1390     1.8690 h1         1 8JH       0.050700
     36 H7          -5.6390    -2.1490     0.2110 ha         1 8JH       0.138000
     37 H8          -7.1490    -3.3430    -1.3240 ha         1 8JH       0.123000
     38 H9          -7.9450     1.4210    -0.2940 ha         1 8JH       0.138000
     39 H10          2.2300     0.3680    -0.4410 h1         1 8JH       0.082700
     40 H11          1.5080     0.8930     2.3370 hn         1 8JH       0.405800
     41 H12          3.6710     2.2570     1.4690 hc         1 8JH       0.030200
     42 H13          4.2770     1.7480    -0.0960 hc         1 8JH       0.030200
     43 H14          3.8960    -0.9690    -0.7620 hn         1 8JH       0.312500
     44 H15          1.7260     3.3340     0.3890 hc         1 8JH       0.067700
     45 H16          8.7040    -5.3270    -1.3160 hn         1 8JH       0.332300
     46 H17          9.9260    -4.4210    -1.8490 hn         1 8JH       0.332300
     47 H20          2.9860     5.2120    -0.6460 hc         1 8JH       0.027033
     48 H21          3.8150     4.6320     0.7970 hc         1 8JH       0.027033
     49 H22          4.4110     4.1860    -0.8010 hc         1 8JH       0.027033
     50 H23         -2.5050     0.9520    -0.8220 hn         1 8JH       0.319500
     51 H24          3.0210     2.4540    -2.2360 hc         1 8JH       0.027033
     52 H25          1.4370     1.9580    -1.6390 hc         1 8JH       0.027033
     53 H26          1.7120     3.6290    -2.1080 hc         1 8JH       0.027033
     54 H27          5.5030    -1.9800     1.4860 h1         1 8JH       0.048700
     55 H28          4.5940    -3.1510     0.5440 h1         1 8JH       0.048700
     56 H29          5.7310    -2.2860    -1.5450 hc         1 8JH       0.039200
     57 H30          6.7040    -1.2260    -0.5410 hc         1 8JH       0.039200
     58 H31          6.6350    -4.2770    -0.3420 hc         1 8JH       0.047700
     59 H32          7.6300    -3.2350     0.6570 hc         1 8JH       0.047700
     60 H33         -9.0690    -2.1630    -2.3460 ha         1 8JH       0.119000
     61 H34         -9.4650     0.2240    -1.8220 ha         1 8JH       0.123000
@<TRIPOS>BOND
     1     1    17 1   
     2     1    27 1   
     3     1    30 1   
     4     1    31 1   
     5     2     9 1   
     6     2    20 1   
     7     2    32 1   
     8     2    33 1   
     9     3    20 1   
    10     3    21 1   
    11     3    23 2   
    12     4     5 1   
    13     4    21 1   
    14     4    34 1   
    15     4    35 1   
    16     5     6 ar  
    17     5     8 ar  
    18     6     7 ar  
    19     6    36 1   
    20     7    28 ar  
    21     7    37 1   
    22     8    29 ar  
    23     8    38 1   
    24     9    11 1   
    25     9    12 1   
    26     9    18 1   
    27    10    11 1   
    28    10    13 1   
    29    10    24 1   
    30    10    39 1   
    31    11    40 1   
    32    13    16 1   
    33    13    41 1   
    34    13    42 1   
    35    14    24 1   
    36    14    25 1   
    37    14    43 1   
    38    15    24 2   
    39    16    19 1   
    40    16    22 1   
    41    16    44 1   
    42    17    45 1   
    43    17    46 1   
    44    19    47 1   
    45    19    48 1   
    46    19    49 1   
    47    20    50 1   
    48    22    51 1   
    49    22    52 1   
    50    22    53 1   
    51    25    26 1   
    52    25    54 1   
    53    25    55 1   
    54    26    27 1   
    55    26    56 1   
    56    26    57 1   
    57    27    58 1   
    58    27    59 1   
    59    28    29 ar  
    60    28    60 1   
    61    29    61 1   
@<TRIPOS>SUBSTRUCTURE
     1 8JH         1 TEMP              0 ****  ****    0 ROOT
