@<TRIPOS>MOLECULE
8JI
   29    29     1     0     0
SMALL
abcg2


@<TRIPOS>ATOM
      1 C15        120.7250   222.7840   279.6680 c3         1 8JI      -0.201400
      2 C01        124.1910   221.0730   274.2410 ca         1 8JI      -0.158000
      3 C02        123.2010   221.5200   275.1020 ca         1 8JI      -0.130500
      4 C03        123.4550   221.6470   276.4640 ca         1 8JI      -0.096000
      5 C04        124.7050   221.3430   276.9920 ca         1 8JI      -0.010300
      6 C05        125.6890   220.8820   276.1150 ca         1 8JI      -0.096000
      7 C06        125.4390   220.7460   274.7590 ca         1 8JI      -0.130500
      8 C07        125.0300   221.4390   278.4640 c3         1 8JI       0.000000
      9 C08        126.1100   222.5240   278.8340 c          1 8JI       0.747000
     10 C12        123.2190   222.6860   279.5770 c          1 8JI       0.595100
     11 C14        122.0040   222.5510   280.4670 c3         1 8JI      -0.137400
     12 C16        119.4240   222.6980   280.4920 c          1 8JI       0.717000
     13 N11        123.8650   221.5380   279.3090 ns         1 8JI      -0.485900
     14 O09        126.6840   223.0960   277.8950 o          1 8JI      -0.715000
     15 O10        126.3260   222.6400   280.0510 o          1 8JI      -0.715000
     16 O13        123.5530   223.7640   279.1010 o          1 8JI      -0.611100
     17 O17        118.3760   222.5280   279.8360 o          1 8JI      -0.754500
     18 O18        119.5200   222.8260   281.7280 o          1 8JI      -0.754500
     19 H1         120.6700   222.0740   278.8370 hc         1 8JI       0.025700
     20 H2         120.7640   223.7750   279.2030 hc         1 8JI       0.025700
     21 H5         122.6510   221.9740   277.1100 ha         1 8JI       0.118500
     22 H6         126.6630   220.6110   276.5030 ha         1 8JI       0.118500
     23 H7         126.2200   220.3800   274.1030 ha         1 8JI       0.083000
     24 H8         125.5010   220.4890   278.7400 h1         1 8JI       0.021700
     25 H9         122.0790   223.2910   281.2650 hc         1 8JI       0.050200
     26 H10        121.9720   221.5700   280.9460 hc         1 8JI       0.050200
     27 H11        123.5140   220.6900   279.7220 hn         1 8JI       0.285500
     28 H3         123.9920   220.9670   273.1820 ha         1 8JI       0.075000
     29 H4         122.2190   221.7670   274.7170 ha         1 8JI       0.083000
@<TRIPOS>BOND
     1     1    11 1   
     2     1    12 1   
     3     1    19 1   
     4     1    20 1   
     5     2     3 ar  
     6     2     7 ar  
     7     2    28 1   
     8     3     4 ar  
     9     3    29 1   
    10     4     5 ar  
    11     4    21 1   
    12     5     6 ar  
    13     5     8 1   
    14     6     7 ar  
    15     6    22 1   
    16     7    23 1   
    17     8     9 1   
    18     8    13 1   
    19     8    24 1   
    20     9    14 1   
    21     9    15 1   
    22    10    11 1   
    23    10    13 1   
    24    10    16 2   
    25    11    25 1   
    26    11    26 1   
    27    12    17 1   
    28    12    18 1   
    29    13    27 1   
@<TRIPOS>SUBSTRUCTURE
     1 8JI         1 TEMP              0 ****  ****    0 ROOT
