@<TRIPOS>MOLECULE
8JI
   29    29     1     0     0
SMALL
No Charge or Current Charge


@<TRIPOS>ATOM
      1 C15        120.5870   222.5940   279.7090 c3         1 8JI      -0.201400
      2 C01        124.2100   221.0940   274.1900 ca         1 8JI      -0.158000
      3 C02        123.6990   222.2050   274.8800 ca         1 8JI      -0.130500
      4 C03        123.9860   222.3800   276.2450 ca         1 8JI      -0.096000
      5 C04        124.7890   221.4460   276.9340 ca         1 8JI      -0.010300
      6 C05        125.2960   220.3330   276.2310 ca         1 8JI      -0.096000
      7 C06        125.0080   220.1580   274.8650 ca         1 8JI      -0.130500
      8 C07        125.1030   221.6060   278.4280 c3         1 8JI       0.000000
      9 C08        126.1250   222.7560   278.7590 c          1 8JI       0.747000
     10 C12        123.1440   222.7560   279.6170 c          1 8JI       0.595100
     11 C14        121.9200   222.4690   280.5000 c3         1 8JI      -0.137400
     12 C16        119.3860   222.2900   280.6220 c          1 8JI       0.717000
     13 N11        123.8730   221.6370   279.2650 ns         1 8JI      -0.485900
     14 O09        126.4830   223.5210   277.8720 o          1 8JI      -0.715000
     15 O10        126.5950   222.7910   279.8910 o          1 8JI      -0.715000
     16 O13        123.4540   223.8910   279.2820 o          1 8JI      -0.611100
     17 O17        119.0150   221.1300   280.7200 o          1 8JI      -0.754500
     18 O18        118.8910   223.2120   281.2510 o          1 8JI      -0.754500
     19 H1         120.6490   221.8550   278.9010 hc         1 8JI       0.025700
     20 H2         120.5430   223.6310   279.3550 hc         1 8JI       0.025700
     21 H5         123.5880   223.2470   276.7630 ha         1 8JI       0.118500
     22 H6         125.9140   219.5990   276.7430 ha         1 8JI       0.118500
     23 H7         125.4050   219.2970   274.3330 ha         1 8JI       0.083000
     24 H8         125.6230   220.6890   278.7340 h1         1 8JI       0.021700
     25 H9         121.9040   223.1920   281.3230 hc         1 8JI       0.050200
     26 H10        121.9840   221.4510   280.9050 hc         1 8JI       0.050200
     27 H11        123.5200   220.7540   279.6130 hn         1 8JI       0.285500
     28 H3         123.9870   220.9590   273.1340 ha         1 8JI       0.075000
     29 H4         123.0810   222.9320   274.3580 ha         1 8JI       0.083000
@<TRIPOS>BOND
     1     1    11 1   
     2     1    12 1   
     3     1    19 1   
     4     1    20 1   
     5     2     3 ar  
     6     2     7 ar  
     7     2    28 1   
     8     3     4 ar  
     9     3    29 1   
    10     4     5 ar  
    11     4    21 1   
    12     5     6 ar  
    13     5     8 1   
    14     6     7 ar  
    15     6    22 1   
    16     7    23 1   
    17     8     9 1   
    18     8    13 1   
    19     8    24 1   
    20     9    14 1   
    21     9    15 1   
    22    10    11 1   
    23    10    13 1   
    24    10    16 2   
    25    11    25 1   
    26    11    26 1   
    27    12    17 1   
    28    12    18 1   
    29    13    27 1   
@<TRIPOS>SUBSTRUCTURE
     1 8JI         1 TEMP              0 ****  ****    0 ROOT
