@<TRIPOS>MOLECULE
8JL
   39    41     1     0     0
SMALL
abcg2


@<TRIPOS>ATOM
      1 C4           2.7650    -1.7110    -0.2870 ca         1 8JL       0.205100
      2 C14         -3.7580    -0.4280    -0.3260 ca         1 8JL      -0.145600
      3 C5           2.9860    -0.3080    -0.4660 ca         1 8JL      -0.080000
      4 C6           2.1570     0.6290     0.2060 ca         1 8JL       0.087000
      5 C11          3.4390    -3.9140    -0.8420 c3         1 8JL       0.148900
      6 C7           4.0200     0.1520    -1.3120 ca         1 8JL      -0.066000
      7 C8           4.2300     1.4910    -1.4980 ca         1 8JL      -0.138000
      8 C9           3.4110     2.4210    -0.8400 ca         1 8JL      -0.079000
      9 C10          2.4050     2.0040    -0.0100 ca         1 8JL      -0.127000
     10 C12         -1.7870     0.9530    -0.0590 ca         1 8JL       0.143000
     11 C13         -2.9860     0.4490     0.4270 ca         1 8JL      -0.023000
     12 N1          -1.0090     1.8370     0.7280 nu         1 8JL      -0.848100
     13 C3           1.7530    -2.1570     0.5270 ca         1 8JL      -0.247000
     14 C1           1.1190     0.1180     1.0450 ca         1 8JL      -0.332500
     15 C15         -3.3150    -0.7860    -1.5960 ca         1 8JL      -0.056000
     16 C16         -2.1270    -0.2860    -2.1090 ca         1 8JL      -0.179000
     17 C17         -1.3750     0.5680    -1.3300 ca         1 8JL       0.116000
     18 C2           0.9330    -1.2320     1.1850 ca         1 8JL       0.062000
     19 F1          -0.2250     1.0590    -1.8090 f          1 8JL      -0.204000
     20 O1           3.5920    -2.5090    -0.9590 os         1 8JL      -0.342100
     21 O2           0.6720     2.2910     2.5040 o          1 8JL      -0.542000
     22 O3          -0.8680     0.3290     2.7200 o          1 8JL      -0.542000
     23 O4          -5.3830    -0.6050     1.3760 o          1 8JL      -0.710500
     24 O5          -5.7130    -1.7330    -0.5180 o          1 8JL      -0.710500
     25 S1          -0.0210     1.1690     1.8930 sy         1 8JL       1.141600
     26 H1           2.4590    -4.2420    -1.1950 h1         1 8JL       0.044367
     27 H2           4.2090    -4.3570    -1.4690 h1         1 8JL       0.044367
     28 H3           3.5810    -4.2480     0.1870 h1         1 8JL       0.044367
     29 H4           4.6540    -0.5610    -1.8200 ha         1 8JL       0.118000
     30 H5           5.0250     1.8320    -2.1480 ha         1 8JL       0.107000
     31 H6           3.5770     3.4810    -0.9840 ha         1 8JL       0.109000
     32 H7           1.8210     2.7570     0.4950 ha         1 8JL       0.129000
     33 H8          -3.3240     0.7550     1.4070 ha         1 8JL       0.159000
     34 H9          -0.5690     2.6040     0.2310 hn         1 8JL       0.481000
     35 H10          1.5620    -3.2090     0.6760 ha         1 8JL       0.122000
     36 H11         -3.9070    -1.4620    -2.1960 ha         1 8JL       0.135000
     37 H12         -1.7830    -0.5600    -3.0980 ha         1 8JL       0.109000
     38 H13          0.1410    -1.6160     1.8120 ha         1 8JL       0.152000
     39 C18         -5.0700    -0.9710     0.2280 c          1 8JL       0.715600
@<TRIPOS>BOND
     1     1     3 ar  
     2     1    13 ar  
     3     1    20 1   
     4     2    11 ar  
     5     2    15 ar  
     6     2    39 1   
     7     3     4 ar  
     8     3     6 ar  
     9     4     9 ar  
    10     4    14 ar  
    11     5    20 1   
    12     5    26 1   
    13     5    27 1   
    14     5    28 1   
    15     6     7 ar  
    16     6    29 1   
    17     7     8 ar  
    18     7    30 1   
    19     8     9 ar  
    20     8    31 1   
    21     9    32 1   
    22    10    11 ar  
    23    10    12 1   
    24    10    17 ar  
    25    11    33 1   
    26    12    25 1   
    27    12    34 1   
    28    13    18 ar  
    29    13    35 1   
    30    14    18 ar  
    31    14    25 1   
    32    15    16 ar  
    33    15    36 1   
    34    16    17 ar  
    35    16    37 1   
    36    17    19 1   
    37    18    38 1   
    38    21    25 2   
    39    22    25 2   
    40    23    39 1   
    41    24    39 1   
@<TRIPOS>SUBSTRUCTURE
     1 8JL         1 TEMP              0 ****  ****    0 ROOT
