@<TRIPOS>MOLECULE
8JL
   39    41     1     0     0
SMALL
No Charge or Current Charge


@<TRIPOS>ATOM
      1 C4           2.5760    -1.9330     0.1090 ca         1 8JL       0.205100
      2 C14         -2.9030    -0.6240    -0.8530 ca         1 8JL      -0.145600
      3 C5           2.6910    -0.6240    -0.4140 ca         1 8JL      -0.080000
      4 C6           1.9550     0.4480     0.1630 ca         1 8JL       0.087000
      5 C11          3.2440    -4.3160    -0.0050 c3         1 8JL       0.148900
      6 C7           3.5410    -0.3820    -1.5190 ca         1 8JL      -0.066000
      7 C8           3.6660     0.9060    -2.0570 ca         1 8JL      -0.138000
      8 C9           2.9440     1.9660    -1.4990 ca         1 8JL      -0.079000
      9 C10          2.0980     1.7410    -0.4010 ca         1 8JL      -0.127000
     10 C12         -1.7130     1.3800    -0.0550 ca         1 8JL       0.143000
     11 C13         -2.1240     0.0410     0.1240 ca         1 8JL      -0.023000
     12 N1          -0.9300     2.0510     0.9000 nu         1 8JL      -0.848100
     13 C3           1.7280    -2.1720     1.2050 ca         1 8JL      -0.247000
     14 C1           1.1010     0.1860     1.2730 ca         1 8JL      -0.332500
     15 C15         -3.2720     0.0770    -2.0240 ca         1 8JL      -0.056000
     16 C16         -2.8730     1.4100    -2.2100 ca         1 8JL      -0.179000
     17 C17         -2.1020     2.0560    -1.2340 ca         1 8JL       0.116000
     18 C2           0.9980    -1.1250     1.7780 ca         1 8JL       0.062000
     19 F1          -1.7240     3.3410    -1.4420 f          1 8JL      -0.204000
     20 O1           3.3050    -2.9570    -0.4720 os         1 8JL      -0.342100
     21 O2           0.9250     2.6130     2.4110 o          1 8JL      -0.542000
     22 O3          -0.7970     0.8400     3.0750 o          1 8JL      -0.542000
     23 O4          -3.0340    -2.6160     0.4050 o          1 8JL      -0.710500
     24 O5          -3.9730    -2.6160    -1.5270 o          1 8JL      -0.710500
     25 S1           0.0980     1.4490     2.0870 sy         1 8JL       1.141600
     26 H1           2.2220    -4.7100    -0.0810 h1         1 8JL       0.044367
     27 H2           3.8990    -4.9550    -0.6100 h1         1 8JL       0.044367
     28 H3           3.5730    -4.3860     1.0390 h1         1 8JL       0.044367
     29 H4           4.1110    -1.1890    -1.9720 ha         1 8JL       0.118000
     30 H5           4.3210     1.0800    -2.9070 ha         1 8JL       0.107000
     31 H6           3.0380     2.9660    -1.9160 ha         1 8JL       0.109000
     32 H7           1.5650     2.5990    -0.0120 ha         1 8JL       0.129000
     33 H8          -1.8440    -0.4880     1.0290 ha         1 8JL       0.159000
     34 H9          -0.6190     2.9880     0.6810 hn         1 8JL       0.481000
     35 H10          1.6160    -3.1640     1.6290 ha         1 8JL       0.122000
     36 H11         -3.8710    -0.4090    -2.7930 ha         1 8JL       0.135000
     37 H12         -3.1610     1.9430    -3.1130 ha         1 8JL       0.109000
     38 H13          0.3510    -1.3490     2.6250 ha         1 8JL       0.152000
     39 C18         -3.3350    -2.0630    -0.6430 c          1 8JL       0.715600
@<TRIPOS>BOND
     1     1     3 ar  
     2     1    13 ar  
     3     1    20 1   
     4     2    11 ar  
     5     2    15 ar  
     6     2    39 1   
     7     3     4 ar  
     8     3     6 ar  
     9     4     9 ar  
    10     4    14 ar  
    11     5    20 1   
    12     5    26 1   
    13     5    27 1   
    14     5    28 1   
    15     6     7 ar  
    16     6    29 1   
    17     7     8 ar  
    18     7    30 1   
    19     8     9 ar  
    20     8    31 1   
    21     9    32 1   
    22    10    11 ar  
    23    10    12 1   
    24    10    17 ar  
    25    11    33 1   
    26    12    25 1   
    27    12    34 1   
    28    13    18 ar  
    29    13    35 1   
    30    14    18 ar  
    31    14    25 1   
    32    15    16 ar  
    33    15    36 1   
    34    16    17 ar  
    35    16    37 1   
    36    17    19 1   
    37    18    38 1   
    38    21    25 2   
    39    22    25 2   
    40    23    39 1   
    41    24    39 1   
@<TRIPOS>SUBSTRUCTURE
     1 8JL         1 TEMP              0 ****  ****    0 ROOT
