@<TRIPOS>MOLECULE
8JM
   43    46     1     0     0
SMALL
bcc


@<TRIPOS>ATOM
      1 C7           1.6270    -2.1630     0.4030 ca         1 8JM       0.672200
      2 C9           2.8990    -0.0470     0.0420 cp         1 8JM      -0.073000
      3 C2           0.3130     1.3680    -0.0990 c3         1 8JM      -0.041100
      4 C10          3.4390     0.1760    -1.2240 ca         1 8JM      -0.078500
      5 C4          -0.7880    -0.8670     0.3500 cp         1 8JM      -0.214300
      6 C1           0.0150     1.6420    -1.5740 c3         1 8JM      -0.083100
      7 C3           0.3860    -0.1080     0.1830 ca         1 8JM       0.029700
      8 C5          -0.6440    -2.2340     0.5150 ca         1 8JM       0.460200
      9 N6           0.5150    -2.8770     0.5400 nb         1 8JM      -0.745000
     10 C8           1.6100    -0.7640     0.2120 cp         1 8JM      -0.221300
     11 C11          4.6510     0.8280    -1.3870 ca         1 8JM      -0.198000
     12 C12          5.3560     1.2710    -0.2710 ca         1 8JM       0.142100
     13 C13          4.8330     1.0510     1.0010 ca         1 8JM      -0.198000
     14 C14          3.6200     0.3960     1.1470 ca         1 8JM      -0.078500
     15 O15          6.5310     1.8990    -0.4740 oh         1 8JM      -0.494100
     16 N16          2.8080    -2.8420     0.4950 nv         1 8JM      -0.940500
     17 C17         -2.1480    -0.2780     0.3540 cp         1 8JM      -0.058000
     18 C18         -2.5430     0.5820     1.4100 ca         1 8JM      -0.080000
     19 C19         -3.8010     1.1300     1.4900 ca         1 8JM      -0.151000
     20 C20         -4.7010     0.7960     0.4720 ca         1 8JM      -0.039200
     21 C21         -4.3440    -0.0620    -0.5820 ca         1 8JM      -0.232900
     22 C22         -3.0510    -0.6010    -0.6370 ca         1 8JM      -0.046000
     23 C23         -5.5190    -0.1400    -1.3770 cc         1 8JM       0.354800
     24 N24         -6.4780     0.5880    -0.8630 nd         1 8JM      -0.517100
     25 N25         -5.9880     1.1460     0.2450 na         1 8JM      -0.012100
     26 H1           1.2510     1.8490     0.1780 hc         1 8JM       0.054200
     27 H2          -0.4640     1.8300     0.5110 hc         1 8JM       0.054200
     28 H3           2.9070    -0.1690    -2.1010 ha         1 8JM       0.137500
     29 H4           0.8030     1.2480    -2.2160 hc         1 8JM       0.036033
     30 H5          -0.9260     1.1830    -1.8780 hc         1 8JM       0.036033
     31 H6          -0.0600     2.7140    -1.7560 hc         1 8JM       0.036033
     32 H7          -1.5300    -2.8500     0.6410 h4         1 8JM       0.020100
     33 H8           5.0530     0.9920    -2.3790 ha         1 8JM       0.140500
     34 H9           5.3710     1.3870     1.8800 ha         1 8JM       0.140500
     35 H10          3.2280     0.2300     2.1430 ha         1 8JM       0.137500
     36 H11          6.9350     2.1370     0.3680 ho         1 8JM       0.427000
     37 H12          2.7490    -3.8400     0.3720 hn         1 8JM       0.418300
     38 H13          3.6270    -2.4240     0.0880 hn         1 8JM       0.418300
     39 H14         -1.8250     0.8040     2.1900 ha         1 8JM       0.135000
     40 H15         -4.0790     1.7790     2.3100 ha         1 8JM       0.139000
     41 H16         -2.7620    -1.2550    -1.4510 ha         1 8JM       0.139000
     42 H17         -5.6780    -0.6970    -2.2880 h4         1 8JM       0.049800
     43 H26         -6.5660     1.7620     0.7920 hn         1 8JM       0.324700
@<TRIPOS>BOND
     1     1     9 ar  
     2     1    10 ar  
     3     1    16 1   
     4     2     4 ar  
     5     2    10 1   
     6     2    14 ar  
     7     3     6 1   
     8     3     7 1   
     9     3    26 1   
    10     3    27 1   
    11     4    11 ar  
    12     4    28 1   
    13     5     7 ar  
    14     5     8 ar  
    15     5    17 1   
    16     6    29 1   
    17     6    30 1   
    18     6    31 1   
    19     7    10 ar  
    20     8     9 ar  
    21     8    32 1   
    22    11    12 ar  
    23    11    33 1   
    24    12    13 ar  
    25    12    15 1   
    26    13    14 ar  
    27    13    34 1   
    28    14    35 1   
    29    15    36 1   
    30    16    37 1   
    31    16    38 1   
    32    17    18 ar  
    33    17    22 ar  
    34    18    19 ar  
    35    18    39 1   
    36    19    20 ar  
    37    19    40 1   
    38    20    21 ar  
    39    20    25 1   
    40    21    22 ar  
    41    21    23 1   
    42    22    41 1   
    43    23    24 2   
    44    23    42 1   
    45    24    25 1   
    46    25    43 1   
@<TRIPOS>SUBSTRUCTURE
     1 8JM         1 TEMP              0 ****  ****    0 ROOT
