@<TRIPOS>MOLECULE
8JM
   43    46     1     0     0
SMALL
No Charge or Current Charge


@<TRIPOS>ATOM
      1 C7           1.6440    -2.1630     0.5240 ca         1 8JM       0.606900
      2 C9           2.9580    -0.0560     0.0460 cp         1 8JM      -0.073000
      3 C2           0.3240     1.4020    -0.0600 c3         1 8JM      -0.041100
      4 C10          3.3620     0.3320    -1.2530 ca         1 8JM      -0.060500
      5 C4          -0.7680    -0.8770     0.4310 cp         1 8JM      -0.149000
      6 C1          -0.0900     1.7160    -1.5120 c3         1 8JM      -0.083100
      7 C3           0.4090    -0.1050     0.2210 ca         1 8JM       0.029700
      8 C5          -0.6200    -2.2670     0.6560 ca         1 8JM       0.394900
      9 N6           0.5660    -2.9060     0.7050 nb         1 8JM      -0.745000
     10 C8           1.6650    -0.7720     0.2650 cp         1 8JM      -0.156000
     11 C11          4.5770     1.0090    -1.4540 ca         1 8JM      -0.180000
     12 C12          5.4060     1.3050    -0.3630 ca         1 8JM       0.142100
     13 C13          5.0240     0.9240     0.9330 ca         1 8JM      -0.180000
     14 C14          3.8080     0.2470     1.1360 ca         1 8JM      -0.060500
     15 O15          6.5820     1.9610    -0.5680 oh         1 8JM      -0.533100
     16 N16          2.7360    -2.9330     0.5850 nv         1 8JM      -1.050900
     17 C17         -2.1390    -0.2900     0.4080 cp         1 8JM      -0.058000
     18 C18         -2.5790     0.5890     1.4430 ca         1 8JM      -0.062000
     19 C19         -3.8800     1.1390     1.4330 ca         1 8JM      -0.133000
     20 C20         -4.7220     0.7810     0.3750 ca         1 8JM      -0.039200
     21 C21         -4.3250    -0.0630    -0.6100 ca         1 8JM      -0.232900
     22 C22         -3.0440    -0.6290    -0.6350 ca         1 8JM      -0.028000
     23 C23         -5.4530    -0.1900    -1.4980 cc         1 8JM       0.354800
     24 N24         -6.4990     0.5430    -1.0780 nd         1 8JM      -0.517100
     25 N25         -6.0220     1.1440     0.0970 na         1 8JM      -0.062400
     26 H1           1.2790     1.8980     0.1430 hc         1 8JM       0.054200
     27 H2          -0.3870     1.8820     0.6200 hc         1 8JM       0.054200
     28 H3           2.7290     0.1000    -2.1060 ha         1 8JM       0.119500
     29 H4           0.6190     1.2790    -2.2230 hc         1 8JM       0.036033
     30 H5          -1.0870     1.3160    -1.7300 hc         1 8JM       0.036033
     31 H6          -0.1150     2.8000    -1.6750 hc         1 8JM       0.036033
     32 H7          -1.5010    -2.8890     0.8120 h4         1 8JM       0.020100
     33 H8           4.8760     1.3010    -2.4580 ha         1 8JM       0.122500
     34 H9           5.6600     1.1490     1.7860 ha         1 8JM       0.122500
     35 H10          3.5150    -0.0440     2.1420 ha         1 8JM       0.119500
     36 H11          7.0250     2.0820     0.2990 ho         1 8JM       0.466000
     37 H12          2.5610    -3.9260     0.4970 hn         1 8JM       0.473500
     38 H13          3.5790    -2.5730     0.1550 hn         1 8JM       0.473500
     39 H14         -1.9020     0.8390     2.2560 ha         1 8JM       0.117000
     40 H15         -4.2130     1.8110     2.2210 ha         1 8JM       0.121000
     41 H16         -2.7460    -1.3030    -1.4360 ha         1 8JM       0.121000
     42 H17         -5.5760    -0.7620    -2.4090 h4         1 8JM       0.049800
     43 H26         -6.6040     1.7710     0.6520 hn         1 8JM       0.375000
@<TRIPOS>BOND
     1     1     9 ar  
     2     1    10 ar  
     3     1    16 1   
     4     2     4 ar  
     5     2    10 1   
     6     2    14 ar  
     7     3     6 1   
     8     3     7 1   
     9     3    26 1   
    10     3    27 1   
    11     4    11 ar  
    12     4    28 1   
    13     5     7 ar  
    14     5     8 ar  
    15     5    17 1   
    16     6    29 1   
    17     6    30 1   
    18     6    31 1   
    19     7    10 ar  
    20     8     9 ar  
    21     8    32 1   
    22    11    12 ar  
    23    11    33 1   
    24    12    13 ar  
    25    12    15 1   
    26    13    14 ar  
    27    13    34 1   
    28    14    35 1   
    29    15    36 1   
    30    16    37 1   
    31    16    38 1   
    32    17    18 ar  
    33    17    22 ar  
    34    18    19 ar  
    35    18    39 1   
    36    19    20 ar  
    37    19    40 1   
    38    20    21 ar  
    39    20    25 1   
    40    21    22 ar  
    41    21    23 1   
    42    22    41 1   
    43    23    24 2   
    44    23    42 1   
    45    24    25 1   
    46    25    43 1   
@<TRIPOS>SUBSTRUCTURE
     1 8JM         1 TEMP              0 ****  ****    0 ROOT
