@<TRIPOS>MOLECULE
8JN
   56    60     1     0     0
SMALL
No Charge or Current Charge


@<TRIPOS>ATOM
      1 C10         -0.1530    -3.4120    -0.0240 c2         1 8JN      -0.250200
      2 C13          0.3740    -0.3720    -0.2020 cc         1 8JN       0.440900
      3 C14          0.6990     0.9250    -0.4060 cd         1 8JN      -0.355600
      4 C16         -1.4980     0.7100    -0.1360 cd         1 8JN       0.488800
      5 C18         -2.9840     1.0060     0.0290 c5         1 8JN      -0.109300
      6 C21         -4.8510    -0.4900     0.6730 c5         1 8JN      -0.078900
      7 C22         -3.9590    -0.0990    -0.5590 c5         1 8JN      -0.046700
      8 C23         -4.8960     0.7110    -1.5260 c5         1 8JN      -0.078900
      9 C24         -4.9700     2.0780    -0.7900 c5         1 8JN      -0.065700
     10 C25         -3.4420     2.3370    -0.6760 c5         1 8JN      -0.072900
     11 C26         -5.6570     1.9620     0.5990 c6         1 8JN      -0.068400
     12 C27          2.0680     1.3830    -0.5950 c          1 8JN       0.634600
     13 C01          7.3900     1.7890     1.6620 c3         1 8JN      -0.088100
     14 C02          6.6560     1.4540     0.3490 c3         1 8JN      -0.072400
     15 C03          5.1780     1.0660     0.5660 c3         1 8JN      -0.095400
     16 N05          3.0170     0.3610    -0.5330 n          1 8JN      -0.370400
     17 C06          2.6970    -0.9990    -0.3330 c          1 8JN       0.625000
     18 O07          3.5910    -1.8380    -0.3100 o          1 8JN      -0.547000
     19 N08          1.3360    -1.3790    -0.1630 n          1 8JN      -0.274500
     20 C09          1.0360    -2.7790     0.0020 c2         1 8JN      -0.072400
     21 C11         -0.3360    -4.8960     0.1750 c3         1 8JN       0.206800
     22 O12          0.1110    -5.2560     1.4810 oh         1 8JN      -0.655000
     23 N15         -0.4980     1.6310    -0.3690 na         1 8JN      -0.241500
     24 N17         -0.9720    -0.5010    -0.0180 nc         1 8JN      -0.703000
     25 C19         -3.4010     1.1340     1.5390 c5         1 8JN      -0.072900
     26 C20         -4.9280     0.8680     1.4270 c5         1 8JN      -0.065700
     27 H1          -1.0920    -2.9030    -0.2210 ha         1 8JN       0.219000
     28 H2          -5.8380    -0.8750     0.3890 hc         1 8JN       0.051450
     29 H3          -4.3770    -1.2700     1.2820 hc         1 8JN       0.051450
     30 H4          -3.4760    -0.9580    -1.0410 hc         1 8JN       0.077700
     31 H5          -4.4560     0.8070    -2.5260 hc         1 8JN       0.051450
     32 H6          -5.8810     0.2480    -1.6630 hc         1 8JN       0.051450
     33 H7          -5.4940     2.8480    -1.3680 hc         1 8JN       0.063200
     34 H8          -3.2080     3.2400    -0.0980 hc         1 8JN       0.052200
     35 H9          -2.9810     2.4650    -1.6640 hc         1 8JN       0.052200
     36 H10         -5.6190     2.9270     1.1240 hc         1 8JN       0.043200
     37 H11         -6.7180     1.7030     0.4780 hc         1 8JN       0.043200
     38 H12          8.4330     2.0580     1.4590 hc         1 8JN       0.033367
     39 H13          6.9110     2.6350     2.1690 hc         1 8JN       0.033367
     40 H14          7.3830     0.9280     2.3410 hc         1 8JN       0.033367
     41 H15          6.7110     2.3210    -0.3210 hc         1 8JN       0.039200
     42 H16          7.1790     0.6290    -0.1510 hc         1 8JN       0.039200
     43 H17          5.1250     0.2000     1.2360 hc         1 8JN       0.051700
     44 H18          4.6570     1.8920     1.0660 hc         1 8JN       0.051700
     45 H19          4.5060     1.5950    -1.4250 h1         1 8JN       0.070700
     46 H20          4.9710    -0.0860    -1.2600 h1         1 8JN       0.070700
     47 H21          1.9230    -3.3840     0.2000 h4         1 8JN       0.214000
     48 H22         -1.3950    -5.1570     0.0490 h1         1 8JN       0.021700
     49 H23          0.2360    -5.4420    -0.5880 h1         1 8JN       0.021700
     50 H24         -0.0360    -6.2240     1.5730 ho         1 8JN       0.439000
     51 H25         -0.6340     2.6300    -0.4760 hn         1 8JN       0.377000
     52 H27         -2.9040     0.3850     2.1690 hc         1 8JN       0.052200
     53 H28         -3.1690     2.1130     1.9740 hc         1 8JN       0.052200
     54 H29         -5.4220     0.7910     2.4020 hc         1 8JN       0.063200
     55 O28          2.3430     2.5600    -0.7790 o          1 8JN      -0.533000
     56 C04          4.4440     0.7310    -0.7500 c3         1 8JN       0.100000
@<TRIPOS>BOND
     1     1    20 2   
     2     1    21 1   
     3     1    27 1   
     4     2     3 2   
     5     2    19 1   
     6     2    24 1   
     7     3    12 1   
     8     3    23 1   
     9     4     5 1   
    10     4    23 1   
    11     4    24 2   
    12     5     7 1   
    13     5    10 1   
    14     5    25 1   
    15     6     7 1   
    16     6    26 1   
    17     6    28 1   
    18     6    29 1   
    19     7     8 1   
    20     7    30 1   
    21     8     9 1   
    22     8    31 1   
    23     8    32 1   
    24     9    10 1   
    25     9    11 1   
    26     9    33 1   
    27    10    34 1   
    28    10    35 1   
    29    11    26 1   
    30    11    36 1   
    31    11    37 1   
    32    12    16 1   
    33    12    55 2   
    34    13    14 1   
    35    13    38 1   
    36    13    39 1   
    37    13    40 1   
    38    14    15 1   
    39    14    41 1   
    40    14    42 1   
    41    15    43 1   
    42    15    44 1   
    43    15    56 1   
    44    16    17 1   
    45    16    56 1   
    46    17    18 2   
    47    17    19 1   
    48    19    20 1   
    49    20    47 1   
    50    21    22 1   
    51    21    48 1   
    52    21    49 1   
    53    22    50 1   
    54    23    51 1   
    55    25    26 1   
    56    25    52 1   
    57    25    53 1   
    58    26    54 1   
    59    45    56 1   
    60    46    56 1   
@<TRIPOS>SUBSTRUCTURE
     1 8JN         1 TEMP              0 ****  ****    0 ROOT
