@<TRIPOS>MOLECULE
8JN
   56    60     1     0     0
SMALL
bcc


@<TRIPOS>ATOM
      1 C10         -0.0820    -3.2900     0.3400 c2         1 8JN      -0.200200
      2 C13          0.3590    -0.3680    -0.1680 cc         1 8JN       0.506200
      3 C14          0.6680     0.9420    -0.4180 cd         1 8JN      -0.370200
      4 C16         -1.4780     0.6860    -0.1050 cd         1 8JN       0.488800
      5 C18         -2.9200     0.9900     0.0530 c5         1 8JN      -0.109300
      6 C21         -4.7860    -0.6130     0.1610 c5         1 8JN      -0.078900
      7 C22         -3.8670     0.0870    -0.8470 c5         1 8JN      -0.046700
      8 C23         -4.7160     1.1030    -1.6210 c5         1 8JN      -0.078900
      9 C24         -4.8190     2.2300    -0.5950 c5         1 8JN      -0.065700
     10 C25         -3.3340     2.4300    -0.2920 c5         1 8JN      -0.072900
     11 C26         -5.5540     1.7280     0.6630 c6         1 8JN      -0.068400
     12 C27          1.9840     1.4180    -0.6480 c          1 8JN       0.777100
     13 C01          7.2870     1.7160     1.4570 c3         1 8JN      -0.088100
     14 C02          6.5250     1.4000     0.1780 c3         1 8JN      -0.072400
     15 C03          5.0670     1.0460     0.4430 c3         1 8JN      -0.095400
     16 N05          2.9200     0.3770    -0.6230 n          1 8JN      -0.504400
     17 C06          2.6600    -0.9570    -0.3490 c          1 8JN       0.834500
     18 O07          3.5580    -1.7730    -0.3110 o          1 8JN      -0.622500
     19 N08          1.3370    -1.3360    -0.1240 n          1 8JN      -0.341500
     20 C09          1.0940    -2.6910     0.1710 c2         1 8JN      -0.022400
     21 C11         -0.1510    -4.7540     0.6270 c3         1 8JN       0.183600
     22 O12         -0.8050    -4.9390     1.8680 oh         1 8JN      -0.592800
     23 N15         -0.5330     1.5990    -0.3690 na         1 8JN      -0.241900
     24 N17         -0.9590    -0.5280     0.0240 nc         1 8JN      -0.703000
     25 C19         -3.4150     0.7200     1.4920 c5         1 8JN      -0.072900
     26 C20         -4.8980     0.4620     1.2410 c5         1 8JN      -0.065700
     27 H1          -1.0160    -2.7520     0.2630 ha         1 8JN       0.169000
     28 H2          -5.7420    -0.8970    -0.2830 hc         1 8JN       0.051450
     29 H3          -4.3280    -1.5180     0.5690 hc         1 8JN       0.051450
     30 H4          -3.3190    -0.6040    -1.4880 hc         1 8JN       0.077700
     31 H5          -4.2100     1.4540    -2.5240 hc         1 8JN       0.051450
     32 H6          -5.6790     0.6880    -1.9230 hc         1 8JN       0.051450
     33 H7          -5.2970     3.1320    -0.9820 hc         1 8JN       0.063200
     34 H8          -3.1350     3.1300     0.5220 hc         1 8JN       0.052200
     35 H9          -2.8270     2.8040    -1.1870 hc         1 8JN       0.052200
     36 H10         -5.5600     2.5170     1.4220 hc         1 8JN       0.043200
     37 H11         -6.5990     1.5220     0.4160 hc         1 8JN       0.043200
     38 H12          8.3320     1.9490     1.2510 hc         1 8JN       0.033367
     39 H13          6.8520     2.5720     1.9750 hc         1 8JN       0.033367
     40 H14          7.2660     0.8690     2.1460 hc         1 8JN       0.033367
     41 H15          6.5750     2.2560    -0.5010 hc         1 8JN       0.039200
     42 H16          7.0120     0.5690    -0.3420 hc         1 8JN       0.039200
     43 H17          5.0150     0.1860     1.1160 hc         1 8JN       0.051700
     44 H18          4.5750     1.8780     0.9560 hc         1 8JN       0.051700
     45 H19          4.3390     1.5970    -1.5090 h1         1 8JN       0.070700
     46 H20          4.8030    -0.0850    -1.3800 h1         1 8JN       0.070700
     47 H21          2.0070    -3.2600     0.2550 h4         1 8JN       0.164000
     48 H22         -0.7040    -5.2490    -0.1820 h1         1 8JN       0.021700
     49 H23          0.8590    -5.1860     0.6310 h1         1 8JN       0.021700
     50 H24         -1.0030    -5.8760     1.9610 ho         1 8JN       0.400000
     51 H25         -0.6740     2.5890    -0.5020 hn         1 8JN       0.326700
     52 H27         -2.9400    -0.1680     1.9170 hc         1 8JN       0.052200
     53 H28         -3.2100     1.5610     2.1590 hc         1 8JN       0.052200
     54 H29         -5.4290     0.1290     2.1360 hc         1 8JN       0.063200
     55 O28          2.3050     2.5750    -0.8520 o          1 8JN      -0.608500
     56 C04          4.3240     0.7340    -0.8480 c3         1 8JN       0.100000
@<TRIPOS>BOND
     1     1    20 2   
     2     1    21 1   
     3     1    27 1   
     4     2     3 2   
     5     2    19 1   
     6     2    24 1   
     7     3    12 1   
     8     3    23 1   
     9     4     5 1   
    10     4    23 1   
    11     4    24 2   
    12     5     7 1   
    13     5    10 1   
    14     5    25 1   
    15     6     7 1   
    16     6    26 1   
    17     6    28 1   
    18     6    29 1   
    19     7     8 1   
    20     7    30 1   
    21     8     9 1   
    22     8    31 1   
    23     8    32 1   
    24     9    10 1   
    25     9    11 1   
    26     9    33 1   
    27    10    34 1   
    28    10    35 1   
    29    11    26 1   
    30    11    36 1   
    31    11    37 1   
    32    12    16 1   
    33    12    55 2   
    34    13    14 1   
    35    13    38 1   
    36    13    39 1   
    37    13    40 1   
    38    14    15 1   
    39    14    41 1   
    40    14    42 1   
    41    15    43 1   
    42    15    44 1   
    43    15    56 1   
    44    16    17 1   
    45    16    56 1   
    46    17    18 2   
    47    17    19 1   
    48    19    20 1   
    49    20    47 1   
    50    21    22 1   
    51    21    48 1   
    52    21    49 1   
    53    22    50 1   
    54    23    51 1   
    55    25    26 1   
    56    25    52 1   
    57    25    53 1   
    58    26    54 1   
    59    45    56 1   
    60    46    56 1   
@<TRIPOS>SUBSTRUCTURE
     1 8JN         1 TEMP              0 ****  ****    0 ROOT
