@<TRIPOS>MOLECULE
8JO
   39    41     1     0     0
SMALL
abcg2


@<TRIPOS>ATOM
      1 C4           2.5210    -1.3920    -0.9610 ca         1 8JO       0.223100
      2 C14         -2.4900    -0.7190    -0.0530 ca         1 8JO      -0.161600
      3 C5           2.3910    -1.0090     0.4120 ca         1 8JO      -0.074000
      4 C6           1.9080     0.2870     0.7390 ca         1 8JO       0.084000
      5 C11          3.1520    -3.0790    -2.5010 c3         1 8JO       0.148900
      6 C7           2.7380    -1.9090     1.4430 ca         1 8JO      -0.052000
      7 C8           2.6120    -1.5510     2.7580 ca         1 8JO      -0.129000
      8 C9           2.1440    -0.2710     3.0880 ca         1 8JO      -0.063000
      9 C10          1.8070     0.6250     2.1090 ca         1 8JO      -0.144000
     10 C12         -1.5210     1.5100     0.0410 ca         1 8JO       0.163000
     11 C13         -1.6560     0.2230     0.5430 ca         1 8JO      -0.081000
     12 N1          -0.6550     2.4440     0.6720 nu         1 8JO      -0.848100
     13 C3           2.1700    -0.5190    -1.9630 ca         1 8JO      -0.255000
     14 C1           1.5450     1.1540    -0.3360 ca         1 8JO      -0.333500
     15 C15         -3.1820    -0.3050    -1.1850 ca         1 8JO       0.201000
     16 C16         -3.0780     0.9760    -1.6970 ca         1 8JO      -0.191000
     17 C17         -2.2450     1.8930    -1.0820 ca         1 8JO      -0.083000
     18 C2           1.6690     0.7470    -1.6370 ca         1 8JO       0.062000
     19 F1          -4.0250    -1.1370    -1.8130 f          1 8JO      -0.167000
     20 O1           2.9930    -2.6190    -1.1690 os         1 8JO      -0.334100
     21 O2           0.5380     3.3340    -1.3510 o          1 8JO      -0.559000
     22 O3           1.5890     3.5020     0.9120 o          1 8JO      -0.559000
     23 O4          -2.9250    -3.0410    -0.2160 o          1 8JO      -0.705000
     24 O5          -2.2410    -2.2160     1.7400 o          1 8JO      -0.705000
     25 S1           0.8170     2.7390    -0.0560 sy         1 8JO       1.140600
     26 H1           3.5570    -4.0850    -2.4290 h1         1 8JO       0.044033
     27 H2           2.1960    -3.1170    -3.0290 h1         1 8JO       0.044033
     28 H3           3.8480    -2.4520    -3.0620 h1         1 8JO       0.044033
     29 H4           3.1050    -2.8930     1.1910 ha         1 8JO       0.122000
     30 H5           2.8780    -2.2500     3.5390 ha         1 8JO       0.111000
     31 H6           2.0530     0.0190     4.1270 ha         1 8JO       0.110000
     32 H7           1.4840     1.6080     2.4170 ha         1 8JO       0.120000
     33 H8          -1.1030    -0.0730     1.4260 ha         1 8JO       0.136000
     34 H9          -0.5630     2.3190     1.6740 hn         1 8JO       0.482000
     35 H10          2.2570    -0.7830    -3.0070 ha         1 8JO       0.118000
     36 H11         -3.6570     1.2580    -2.5670 ha         1 8JO       0.111000
     37 H12         -2.1740     2.9020    -1.4630 ha         1 8JO       0.121000
     38 H13          1.3790     1.4010    -2.4470 ha         1 8JO       0.138000
     39 C18         -2.5670    -2.1250     0.5430 c          1 8JO       0.721600
@<TRIPOS>BOND
     1     1     3 ar  
     2     1    13 ar  
     3     1    20 1   
     4     2    11 ar  
     5     2    15 ar  
     6     2    39 1   
     7     3     4 ar  
     8     3     6 ar  
     9     4     9 ar  
    10     4    14 ar  
    11     5    20 1   
    12     5    26 1   
    13     5    27 1   
    14     5    28 1   
    15     6     7 ar  
    16     6    29 1   
    17     7     8 ar  
    18     7    30 1   
    19     8     9 ar  
    20     8    31 1   
    21     9    32 1   
    22    10    11 ar  
    23    10    12 1   
    24    10    17 ar  
    25    11    33 1   
    26    12    25 1   
    27    12    34 1   
    28    13    18 ar  
    29    13    35 1   
    30    14    18 ar  
    31    14    25 1   
    32    15    16 ar  
    33    15    19 1   
    34    16    17 ar  
    35    16    36 1   
    36    17    37 1   
    37    18    38 1   
    38    21    25 2   
    39    22    25 2   
    40    23    39 1   
    41    24    39 1   
@<TRIPOS>SUBSTRUCTURE
     1 8JO         1 TEMP              0 ****  ****    0 ROOT
