@<TRIPOS>MOLECULE
8JO
   39    41     1     0     0
SMALL
No Charge or Current Charge


@<TRIPOS>ATOM
      1 C4           3.2070    -1.1540    -1.3740 ca         1 8JO       0.223100
      2 C14         -3.8800    -0.0180     0.6960 ca         1 8JO      -0.161600
      3 C5           2.8990    -1.0860     0.0040 ca         1 8JO      -0.074000
      4 C6           2.1440     0.0050     0.5190 ca         1 8JO       0.084000
      5 C11          4.2970    -2.3750    -3.2330 c3         1 8JO       0.148900
      6 C7           3.3420    -2.1090     0.8750 ca         1 8JO      -0.052000
      7 C8           3.0450    -2.0620     2.2430 ca         1 8JO      -0.129000
      8 C9           2.3020    -0.9950     2.7580 ca         1 8JO      -0.063000
      9 C10          1.8560     0.0280     1.9070 ca         1 8JO      -0.144000
     10 C12         -1.6950     1.0510     0.3470 ca         1 8JO       0.163000
     11 C13         -2.8210     0.8000     1.1530 ca         1 8JO      -0.081000
     12 N1          -0.6720     1.8560     0.8570 nu         1 8JO      -0.848100
     13 C3           2.7650    -0.1350    -2.2370 ca         1 8JO      -0.255000
     14 C1           1.7020     1.0250    -0.3710 ca         1 8JO      -0.333500
     15 C15         -3.8030    -0.5770    -0.5940 ca         1 8JO       0.201000
     16 C16         -2.6850    -0.3310    -1.4060 ca         1 8JO      -0.191000
     17 C17         -1.6330     0.4760    -0.9390 ca         1 8JO      -0.083000
     18 C2           2.0220     0.9420    -1.7390 ca         1 8JO       0.062000
     19 F1          -4.8090    -1.3340    -1.0860 f          1 8JO      -0.167000
     20 O1           3.9430    -2.2270    -1.8470 os         1 8JO      -0.334100
     21 O2           0.2620     3.2120    -1.0130 o          1 8JO      -0.559000
     22 O3           1.3930     3.1210     1.2790 o          1 8JO      -0.559000
     23 O4          -5.4660    -1.4190     1.7130 o          1 8JO      -0.705000
     24 O5          -5.5390     0.6790     2.1880 o          1 8JO      -0.705000
     25 S1           0.7340     2.4580     0.1520 sy         1 8JO       1.140600
     26 H1           4.8760    -3.2950    -3.3810 h1         1 8JO       0.044033
     27 H2           3.3990    -2.4350    -3.8620 h1         1 8JO       0.044033
     28 H3           4.9100    -1.5300    -3.5720 h1         1 8JO       0.044033
     29 H4           3.9200    -2.9500     0.4990 ha         1 8JO       0.122000
     30 H5           3.3900    -2.8540     2.9040 ha         1 8JO       0.111000
     31 H6           2.0700    -0.9570     3.8200 ha         1 8JO       0.110000
     32 H7           1.2840     0.8280     2.3580 ha         1 8JO       0.120000
     33 H8          -2.8740     1.2350     2.1480 ha         1 8JO       0.136000
     34 H9          -0.8150     2.3480     1.7280 hn         1 8JO       0.482000
     35 H10          2.9860    -0.1560    -3.2990 ha         1 8JO       0.118000
     36 H11         -2.6360    -0.7640    -2.4020 ha         1 8JO       0.111000
     37 H12         -0.7820     0.6520    -1.5870 ha         1 8JO       0.121000
     38 H13          1.6990     1.7130    -2.4370 ha         1 8JO       0.138000
     39 C18         -5.0680    -0.2710     1.5800 c          1 8JO       0.721600
@<TRIPOS>BOND
     1     1     3 ar  
     2     1    13 ar  
     3     1    20 1   
     4     2    11 ar  
     5     2    15 ar  
     6     2    39 1   
     7     3     4 ar  
     8     3     6 ar  
     9     4     9 ar  
    10     4    14 ar  
    11     5    20 1   
    12     5    26 1   
    13     5    27 1   
    14     5    28 1   
    15     6     7 ar  
    16     6    29 1   
    17     7     8 ar  
    18     7    30 1   
    19     8     9 ar  
    20     8    31 1   
    21     9    32 1   
    22    10    11 ar  
    23    10    12 1   
    24    10    17 ar  
    25    11    33 1   
    26    12    25 1   
    27    12    34 1   
    28    13    18 ar  
    29    13    35 1   
    30    14    18 ar  
    31    14    25 1   
    32    15    16 ar  
    33    15    19 1   
    34    16    17 ar  
    35    16    36 1   
    36    17    37 1   
    37    18    38 1   
    38    21    25 2   
    39    22    25 2   
    40    23    39 1   
    41    24    39 1   
@<TRIPOS>SUBSTRUCTURE
     1 8JO         1 TEMP              0 ****  ****    0 ROOT
