@<TRIPOS>MOLECULE
8JP
   46    48     1     0     0
SMALL
No Charge or Current Charge


@<TRIPOS>ATOM
      1 C4          -0.2220     1.1900    -0.2260 cp         1 8JP      -0.167000
      2 C14          4.1860     0.0240     1.0820 ca         1 8JP      -0.060000
      3 C5           0.0520     2.5480    -0.5140 ca         1 8JP       0.404900
      4 C11          4.9730    -1.6810    -1.0080 ca         1 8JP      -0.179500
      5 C7           2.2970     2.2080    -0.5300 ca         1 8JP       0.618900
      6 C8           2.1910     0.8270    -0.2450 cp         1 8JP      -0.159000
      7 C9           3.4120    -0.0220    -0.1000 cp         1 8JP      -0.077000
      8 C10          3.8240    -0.8830    -1.1450 ca         1 8JP      -0.060000
      9 C12          5.7270    -1.6250     0.1760 ca         1 8JP       0.143100
     10 C13          5.3350    -0.7740     1.2190 ca         1 8JP      -0.179500
     11 C3           0.8800     0.3010    -0.0850 ca         1 8JP       0.036700
     12 C1           0.5670    -1.3610     1.8220 c3         1 8JP      -0.083100
     13 C2           0.6660    -1.1690     0.2970 c3         1 8JP      -0.043100
     14 N6           1.2910     3.0550    -0.6710 nb         1 8JP      -0.747000
     15 O15          6.8420    -2.3950     0.3170 oh         1 8JP      -0.531100
     16 N16          3.4540     2.8510    -0.7160 nv         1 8JP      -1.052900
     17 C17         -1.6400     0.7540    -0.0610 cp         1 8JP      -0.046000
     18 C18         -2.4090     1.1980     1.0370 ca         1 8JP      -0.082000
     19 C19         -3.7450     0.7790     1.1520 ca         1 8JP      -0.102000
     20 C20         -4.3030    -0.0690     0.1690 ca         1 8JP       0.283500
     21 N21         -3.5680    -0.4930    -0.9040 nb         1 8JP      -0.679000
     22 C22         -2.2810    -0.0860    -1.0060 ca         1 8JP       0.342900
     23 C23         -5.7630    -0.5250     0.3000 c          1 8JP       0.503600
     24 O24         -6.4970    -0.1930     1.2270 o          1 8JP      -0.608100
     25 N25         -6.2200    -1.3510    -0.7090 ns         1 8JP      -0.488900
     26 C26         -7.5720    -1.9060    -0.7910 c3         1 8JP       0.097300
     27 H1           3.8870     0.6810     1.8960 ha         1 8JP       0.120000
     28 H2          -0.7680     3.2570    -0.6260 h4         1 8JP       0.020100
     29 H3           5.2700    -2.3370    -1.8220 ha         1 8JP       0.123500
     30 H4           3.2430    -0.9290    -2.0640 ha         1 8JP       0.120000
     31 H5           5.9200    -0.7320     2.1340 ha         1 8JP       0.123500
     32 H6           1.4860    -1.0210     2.3140 hc         1 8JP       0.038033
     33 H7          -0.2760    -0.7910     2.2300 hc         1 8JP       0.038033
     34 H8           0.4180    -2.4190     2.0660 hc         1 8JP       0.038033
     35 H9          -0.2390    -1.5710    -0.1690 hc         1 8JP       0.054200
     36 H10          1.4770    -1.8000    -0.0830 hc         1 8JP       0.054200
     37 H11          6.9620    -2.9210    -0.5020 ho         1 8JP       0.466000
     38 H12          3.3710     3.7490    -1.1750 hn         1 8JP       0.479500
     39 H13          4.2610     2.2870    -0.9510 hn         1 8JP       0.479500
     40 H14         -1.9710     1.8500     1.7890 ha         1 8JP       0.128000
     41 H15         -4.3470     1.1080     1.9950 ha         1 8JP       0.150000
     42 H16         -1.7340    -0.4420    -1.8790 h4         1 8JP       0.023100
     43 H17         -5.5450    -1.5740    -1.4350 hn         1 8JP       0.342500
     44 H18         -7.7730    -2.5240     0.0940 h1         1 8JP       0.039700
     45 H19         -8.3050    -1.0900    -0.8410 h1         1 8JP       0.039700
     46 H20         -7.6600    -2.5260    -1.6930 h1         1 8JP       0.039700
@<TRIPOS>BOND
     1     1     3 ar  
     2     1    11 ar  
     3     1    17 1   
     4     2     7 ar  
     5     2    10 ar  
     6     2    27 1   
     7     3    14 ar  
     8     3    28 1   
     9     4     8 ar  
    10     4     9 ar  
    11     4    29 1   
    12     5     6 ar  
    13     5    14 ar  
    14     5    16 1   
    15     6     7 1   
    16     6    11 ar  
    17     7     8 ar  
    18     8    30 1   
    19     9    10 ar  
    20     9    15 1   
    21    10    31 1   
    22    11    13 1   
    23    12    13 1   
    24    12    32 1   
    25    12    33 1   
    26    12    34 1   
    27    13    35 1   
    28    13    36 1   
    29    15    37 1   
    30    16    38 1   
    31    16    39 1   
    32    17    18 ar  
    33    17    22 ar  
    34    18    19 ar  
    35    18    40 1   
    36    19    20 ar  
    37    19    41 1   
    38    20    21 ar  
    39    20    23 1   
    40    21    22 ar  
    41    22    42 1   
    42    23    24 2   
    43    23    25 1   
    44    25    26 1   
    45    25    43 1   
    46    26    44 1   
    47    26    45 1   
    48    26    46 1   
@<TRIPOS>SUBSTRUCTURE
     1 8JP         1 TEMP              0 ****  ****    0 ROOT
