@<TRIPOS>MOLECULE
8JP
   46    48     1     0     0
SMALL
bcc


@<TRIPOS>ATOM
      1 C4          -0.2460     1.1720    -0.1980 cp         1 8JP      -0.232300
      2 C14          4.0230    -0.1340     1.0760 ca         1 8JP      -0.078000
      3 C5           0.0250     2.5020    -0.4740 ca         1 8JP       0.470200
      4 C11          4.9800    -1.5340    -1.1120 ca         1 8JP      -0.197500
      5 C7           2.2760     2.1780    -0.5570 ca         1 8JP       0.684200
      6 C8           2.1270     0.8030    -0.2620 cp         1 8JP      -0.224300
      7 C9           3.3410    -0.0410    -0.1360 cp         1 8JP      -0.077000
      8 C10          3.8420    -0.7480    -1.2260 ca         1 8JP      -0.078000
      9 C12          5.6430    -1.6240     0.1080 ca         1 8JP       0.143100
     10 C13          5.1590    -0.9150     1.2060 ca         1 8JP      -0.197500
     11 C3           0.8490     0.2920    -0.0830 ca         1 8JP       0.036700
     12 C1           0.4910    -1.2810     1.8300 c3         1 8JP      -0.083100
     13 C2           0.6450    -1.1440     0.3160 c3         1 8JP      -0.043100
     14 N6           1.2370     3.0020    -0.6570 nb         1 8JP      -0.747000
     15 O15          6.7490    -2.3730     0.2810 oh         1 8JP      -0.492100
     16 N16          3.5110     2.7280    -0.7090 nv         1 8JP      -0.942500
     17 C17         -1.6500     0.7510    -0.0250 cp         1 8JP      -0.111300
     18 C18         -2.4440     1.2650     0.9940 ca         1 8JP      -0.100000
     19 C19         -3.7690     0.8730     1.0990 ca         1 8JP      -0.185300
     20 C20         -4.2620    -0.0350     0.1760 ca         1 8JP       0.348800
     21 N21         -3.5170    -0.5280    -0.8090 nb         1 8JP      -0.679000
     22 C22         -2.2580    -0.1450    -0.9090 ca         1 8JP       0.408200
     23 C23         -5.6900    -0.4950     0.2640 c          1 8JP       0.570600
     24 O24         -6.4390    -0.0770     1.1370 o          1 8JP      -0.608100
     25 N25         -6.0540    -1.3770    -0.6680 ns         1 8JP      -0.555900
     26 C26         -7.3820    -1.9330    -0.7350 c3         1 8JP       0.097300
     27 H1           3.6580     0.4120     1.9370 ha         1 8JP       0.138000
     28 H2          -0.7980     3.2040    -0.5700 h4         1 8JP       0.020100
     29 H3           5.3470    -2.0770    -1.9760 ha         1 8JP       0.141500
     30 H4           3.3380    -0.6880    -2.1820 ha         1 8JP       0.138000
     31 H5           5.6720    -0.9800     2.1570 ha         1 8JP       0.141500
     32 H6           1.3900    -0.9450     2.3480 hc         1 8JP       0.038033
     33 H7          -0.3480    -0.6910     2.2010 hc         1 8JP       0.038033
     34 H8           0.3160    -2.3210     2.1040 hc         1 8JP       0.038033
     35 H9          -0.2380    -1.5530    -0.1740 hc         1 8JP       0.054200
     36 H10          1.4850    -1.7500    -0.0200 hc         1 8JP       0.054200
     37 H11          6.9800    -2.8240    -0.5390 ho         1 8JP       0.427000
     38 H12          3.5460     3.6290    -1.1570 hn         1 8JP       0.424300
     39 H13          4.2840     2.1200    -0.9220 hn         1 8JP       0.424300
     40 H14         -2.0240     1.9620     1.7080 ha         1 8JP       0.146000
     41 H15         -4.4010     1.2600     1.8860 ha         1 8JP       0.168000
     42 H16         -1.6910    -0.5560    -1.7380 h4         1 8JP       0.023100
     43 H17         -5.3570    -1.6630    -1.3380 hn         1 8JP       0.342500
     44 H18         -7.6360    -2.4800     0.1740 h1         1 8JP       0.039700
     45 H19         -8.1350    -1.1600    -0.8890 h1         1 8JP       0.039700
     46 H20         -7.4240    -2.6230    -1.5730 h1         1 8JP       0.039700
@<TRIPOS>BOND
     1     1     3 ar  
     2     1    11 ar  
     3     1    17 1   
     4     2     7 ar  
     5     2    10 ar  
     6     2    27 1   
     7     3    14 ar  
     8     3    28 1   
     9     4     8 ar  
    10     4     9 ar  
    11     4    29 1   
    12     5     6 ar  
    13     5    14 ar  
    14     5    16 1   
    15     6     7 1   
    16     6    11 ar  
    17     7     8 ar  
    18     8    30 1   
    19     9    10 ar  
    20     9    15 1   
    21    10    31 1   
    22    11    13 1   
    23    12    13 1   
    24    12    32 1   
    25    12    33 1   
    26    12    34 1   
    27    13    35 1   
    28    13    36 1   
    29    15    37 1   
    30    16    38 1   
    31    16    39 1   
    32    17    18 ar  
    33    17    22 ar  
    34    18    19 ar  
    35    18    40 1   
    36    19    20 ar  
    37    19    41 1   
    38    20    21 ar  
    39    20    23 1   
    40    21    22 ar  
    41    22    42 1   
    42    23    24 2   
    43    23    25 1   
    44    25    26 1   
    45    25    43 1   
    46    26    44 1   
    47    26    45 1   
    48    26    46 1   
@<TRIPOS>SUBSTRUCTURE
     1 8JP         1 TEMP              0 ****  ****    0 ROOT
