@<TRIPOS>MOLECULE
8JQ
   55    55     1     0     0
SMALL
abcg2


@<TRIPOS>ATOM
      1 C10          0.9240     0.6640     1.0750 c          1 8JQ       0.645100
      2 C11          2.3450     0.9960    -0.7800 c3         1 8JQ       0.231900
      3 C12          3.7720     0.7110    -1.1390 ca         1 8JQ      -0.086300
      4 C13          4.2050    -0.6040    -1.2970 ca         1 8JQ      -0.086000
      5 C14          5.5240    -0.8770    -1.6250 ca         1 8JQ      -0.122000
      6 C15          6.4280     0.1650    -1.8020 ca         1 8JQ      -0.112000
      7 C16          6.0050     1.4770    -1.6480 ca         1 8JQ      -0.122000
      8 O01         -0.9780    -2.5230     4.1030 o          1 8JQ      -0.817500
      9 P01         -0.8220    -1.8440     2.7640 p5         1 8JQ       1.338300
     10 N01         -2.4020    -1.6790     2.1310 n7         1 8JQ      -0.962500
     11 C01         -2.5710    -1.3120     0.7380 c3         1 8JQ       0.160500
     12 C02         -2.9550    -2.4860    -0.1550 c3         1 8JQ      -0.086400
     13 C03         -3.1040    -2.1460    -1.6390 c3         1 8JQ      -0.057700
     14 C04         -1.8170    -1.5760    -2.2320 c3         1 8JQ      -0.086600
     15 C05         -3.5430    -3.3830    -2.4170 c3         1 8JQ      -0.086600
     16 C06         -3.6010    -0.1890     0.6740 c          1 8JQ       0.598100
     17 O02         -4.8030    -0.4020     0.7820 o          1 8JQ      -0.643100
     18 O03          0.1320    -2.3900     1.7320 o          1 8JQ      -0.817500
     19 C09         -0.3400    -0.0520     3.0300 c3         1 8JQ      -0.263000
     20 N04          0.8910     0.3150     2.3690 ns         1 8JQ      -0.419900
     21 O04          2.1700     0.6190     0.5890 os         1 8JQ      -0.457100
     22 C17          4.6830     1.7470    -1.3140 ca         1 8JQ      -0.086000
     23 O05         -0.0300     1.0330     0.4100 o          1 8JQ      -0.610000
     24 N02         -3.0770     1.0390     0.5420 ns         1 8JQ      -0.514900
     25 C07         -3.8670     2.2460     0.4840 c3         1 8JQ       0.110000
     26 C08         -4.3500     2.5590    -0.9280 c3         1 8JQ       0.118800
     27 N03         -5.0970     3.8060    -0.9330 n8         1 8JQ      -0.997200
     28 H1           2.1160     2.0560    -0.9150 h1         1 8JQ       0.049700
     29 H2           1.6680     0.4220    -1.4160 h1         1 8JQ       0.049700
     30 H3           3.5040    -1.4210    -1.1700 ha         1 8JQ       0.121500
     31 H4           5.8480    -1.9030    -1.7490 ha         1 8JQ       0.106500
     32 H5           7.4570    -0.0490    -2.0620 ha         1 8JQ       0.102000
     33 H6           6.7030     2.2930    -1.7850 ha         1 8JQ       0.106500
     34 H8          -3.0680    -2.3630     2.4600 hn         1 8JQ       0.453000
     35 H9          -1.6110    -0.9290     0.3910 h1         1 8JQ       0.072700
     36 H10         -2.1790    -3.2490    -0.0350 hc         1 8JQ       0.052700
     37 H11         -3.8900    -2.9220     0.2110 hc         1 8JQ       0.052700
     38 H12         -3.8930    -1.3920    -1.7470 hc         1 8JQ       0.045700
     39 H13         -0.9930    -2.2850    -2.1220 hc         1 8JQ       0.027700
     40 H14         -1.9360    -1.3690    -3.2970 hc         1 8JQ       0.027700
     41 H15         -1.5130    -0.6440    -1.7540 hc         1 8JQ       0.027700
     42 H16         -4.4720    -3.7970    -2.0200 hc         1 8JQ       0.027700
     43 H17         -3.7080    -3.1520    -3.4710 hc         1 8JQ       0.027700
     44 H18         -2.7830    -4.1660    -2.3660 hc         1 8JQ       0.027700
     45 H19         -1.1400     0.6080     2.6960 h1         1 8JQ       0.064200
     46 H20         -0.2170     0.1280     4.0980 h1         1 8JQ       0.064200
     47 H21          1.7370    -0.0810     2.7470 hn         1 8JQ       0.315500
     48 H22          4.3590     2.7730    -1.1920 ha         1 8JQ       0.121500
     49 H23         -2.0710     1.1210     0.4680 hn         1 8JQ       0.351500
     50 H24         -4.7220     2.1660     1.1570 h1         1 8JQ       0.049200
     51 H25         -3.2470     3.0660     0.8520 h1         1 8JQ       0.049200
     52 H26         -3.4860     2.5500    -1.6070 h1         1 8JQ       0.035700
     53 H27         -5.0130     1.7560    -1.2580 h1         1 8JQ       0.035700
     54 H28         -4.4600     4.5820    -0.8040 hn         1 8JQ       0.382500
     55 H29         -5.5150     3.9460    -1.8430 hn         1 8JQ       0.382500
@<TRIPOS>BOND
     1     1    20 1   
     2     1    21 1   
     3     1    23 2   
     4     2     3 1   
     5     2    21 1   
     6     2    28 1   
     7     2    29 1   
     8     3     4 ar  
     9     3    22 ar  
    10     4     5 ar  
    11     4    30 1   
    12     5     6 ar  
    13     5    31 1   
    14     6     7 ar  
    15     6    32 1   
    16     7    22 ar  
    17     7    33 1   
    18     8     9 1   
    19     9    10 1   
    20     9    18 1   
    21     9    19 1   
    22    10    11 1   
    23    10    34 1   
    24    11    12 1   
    25    11    16 1   
    26    11    35 1   
    27    12    13 1   
    28    12    36 1   
    29    12    37 1   
    30    13    14 1   
    31    13    15 1   
    32    13    38 1   
    33    14    39 1   
    34    14    40 1   
    35    14    41 1   
    36    15    42 1   
    37    15    43 1   
    38    15    44 1   
    39    16    17 2   
    40    16    24 1   
    41    19    20 1   
    42    19    45 1   
    43    19    46 1   
    44    20    47 1   
    45    22    48 1   
    46    24    25 1   
    47    24    49 1   
    48    25    26 1   
    49    25    50 1   
    50    25    51 1   
    51    26    27 1   
    52    26    52 1   
    53    26    53 1   
    54    27    54 1   
    55    27    55 1   
@<TRIPOS>SUBSTRUCTURE
     1 8JQ         1 TEMP              0 ****  ****    0 ROOT
