@<TRIPOS>MOLECULE
8JQ
   55    55     1     0     0
SMALL
No Charge or Current Charge


@<TRIPOS>ATOM
      1 C10          0.6380     0.6070     1.4920 c          1 8JQ       0.645100
      2 C11          1.8850     1.3150    -0.4180 c3         1 8JQ       0.231900
      3 C12          3.1180     0.8870    -1.2020 ca         1 8JQ      -0.086300
      4 C13          3.0060    -0.0610    -2.2390 ca         1 8JQ      -0.086000
      5 C14          4.1440    -0.4560    -2.9640 ca         1 8JQ      -0.122000
      6 C15          5.4000     0.0930    -2.6570 ca         1 8JQ      -0.112000
      7 C16          5.5180     1.0370    -1.6230 ca         1 8JQ      -0.122000
      8 O01         -2.0330    -2.4980     4.7250 o          1 8JQ      -0.817500
      9 P01         -1.4160    -2.1050     3.4300 p5         1 8JQ       1.338300
     10 N01         -2.6390    -1.6430     2.4400 n7         1 8JQ      -0.962500
     11 C01         -2.4800    -1.1920     1.0250 c3         1 8JQ       0.160500
     12 C02         -2.4950    -2.4000     0.0460 c3         1 8JQ      -0.086400
     13 C03         -2.2650    -2.0450    -1.4520 c3         1 8JQ      -0.057700
     14 C04         -0.9220    -1.3140    -1.7000 c3         1 8JQ      -0.086600
     15 C05         -2.3720    -3.3070    -2.3370 c3         1 8JQ      -0.086600
     16 C06         -3.5140    -0.0810     0.6180 c          1 8JQ       0.598100
     17 O02         -4.6930    -0.3130     0.3660 o          1 8JQ      -0.643100
     18 O03         -0.6670    -3.2040     2.7650 o          1 8JQ      -0.817500
     19 C09         -0.4250    -0.5340     3.5100 c3         1 8JQ      -0.263000
     20 N04          0.6400    -0.3450     2.4810 ns         1 8JQ      -0.419900
     21 O04          1.7260     0.4260     0.6990 os         1 8JQ      -0.457100
     22 C17          4.3810     1.4330    -0.8970 ca         1 8JQ      -0.086000
     23 O05         -0.2220     1.4630     1.3370 o          1 8JQ      -0.610000
     24 N02         -2.9990     1.1970     0.5490 ns         1 8JQ      -0.514900
     25 C07         -3.7460     2.3830     0.1210 c3         1 8JQ       0.110000
     26 C08         -3.9890     2.4130    -1.4110 c3         1 8JQ       0.118800
     27 N03         -4.6880     3.6420    -1.8580 n8         1 8JQ      -0.997200
     28 H1           2.0050     2.3510    -0.0750 h1         1 8JQ       0.049700
     29 H2           1.0060     1.2770    -1.0750 h1         1 8JQ       0.049700
     30 H3           2.0370    -0.4930    -2.4810 ha         1 8JQ       0.121500
     31 H4           4.0510    -1.1880    -3.7630 ha         1 8JQ       0.106500
     32 H5           6.2800    -0.2130    -3.2180 ha         1 8JQ       0.102000
     33 H6           6.4900     1.4620    -1.3830 ha         1 8JQ       0.106500
     34 H8          -3.2630    -2.4430     2.4860 hn         1 8JQ       0.453000
     35 H9          -1.5010    -0.7200     0.9200 h1         1 8JQ       0.072700
     36 H10         -1.7270    -3.1210     0.3490 hc         1 8JQ       0.052700
     37 H11         -3.4590    -2.9150     0.1420 hc         1 8JQ       0.052700
     38 H12         -3.0680    -1.3690    -1.7720 hc         1 8JQ       0.045700
     39 H13         -0.0790    -1.9000    -1.3150 hc         1 8JQ       0.027700
     40 H14         -0.7630    -1.1510    -2.7730 hc         1 8JQ       0.027700
     41 H15         -0.9110    -0.3310    -1.2170 hc         1 8JQ       0.027700
     42 H16         -3.3450    -3.7950    -2.2020 hc         1 8JQ       0.027700
     43 H17         -2.2700    -3.0480    -3.3980 hc         1 8JQ       0.027700
     44 H18         -1.5870    -4.0300    -2.0840 hc         1 8JQ       0.027700
     45 H19         -1.1400     0.2950     3.4690 h1         1 8JQ       0.064200
     46 H20          0.0430    -0.5310     4.5010 h1         1 8JQ       0.064200
     47 H21          1.4110    -1.0020     2.4420 hn         1 8JQ       0.315500
     48 H22          4.4810     2.1620    -0.0960 ha         1 8JQ       0.121500
     49 H23         -2.0220     1.3130     0.8180 hn         1 8JQ       0.351500
     50 H24         -4.7080     2.4080     0.6480 h1         1 8JQ       0.049200
     51 H25         -3.1740     3.2720     0.4170 h1         1 8JQ       0.049200
     52 H26         -3.0240     2.3500    -1.9330 h1         1 8JQ       0.035700
     53 H27         -4.5930     1.5430    -1.7030 h1         1 8JQ       0.035700
     54 H28         -4.0860     4.4560    -1.6850 hn         1 8JQ       0.382500
     55 H29         -4.7800     3.6230    -2.8820 hn         1 8JQ       0.382500
@<TRIPOS>BOND
     1     1    20 1   
     2     1    21 1   
     3     1    23 2   
     4     2     3 1   
     5     2    21 1   
     6     2    28 1   
     7     2    29 1   
     8     3     4 ar  
     9     3    22 ar  
    10     4     5 ar  
    11     4    30 1   
    12     5     6 ar  
    13     5    31 1   
    14     6     7 ar  
    15     6    32 1   
    16     7    22 ar  
    17     7    33 1   
    18     8     9 1   
    19     9    10 1   
    20     9    18 1   
    21     9    19 1   
    22    10    11 1   
    23    10    34 1   
    24    11    12 1   
    25    11    16 1   
    26    11    35 1   
    27    12    13 1   
    28    12    36 1   
    29    12    37 1   
    30    13    14 1   
    31    13    15 1   
    32    13    38 1   
    33    14    39 1   
    34    14    40 1   
    35    14    41 1   
    36    15    42 1   
    37    15    43 1   
    38    15    44 1   
    39    16    17 2   
    40    16    24 1   
    41    19    20 1   
    42    19    45 1   
    43    19    46 1   
    44    20    47 1   
    45    22    48 1   
    46    24    25 1   
    47    24    49 1   
    48    25    26 1   
    49    25    50 1   
    50    25    51 1   
    51    26    27 1   
    52    26    52 1   
    53    26    53 1   
    54    27    54 1   
    55    27    55 1   
@<TRIPOS>SUBSTRUCTURE
     1 8JQ         1 TEMP              0 ****  ****    0 ROOT
