@<TRIPOS>MOLECULE
8JR
   39    41     1     0     0
SMALL
No Charge or Current Charge


@<TRIPOS>ATOM
      1 C13          2.3290    -0.2650    -2.1640 ca         1 8JR      -0.158000
      2 C15          3.6310    -0.4870    -0.1120 ca         1 8JR      -0.161600
      3 C21         -1.8350     0.1000     0.6660 ca         1 8JR       0.090000
      4 C22         -1.2860     0.1360     1.9730 ca         1 8JR      -0.130000
      5 C24         -2.2980    -2.0020     2.5190 ca         1 8JR      -0.132000
      6 C26         -2.6280    -1.0240     0.3000 ca         1 8JR      -0.075000
      7 C01         -4.5660    -2.3810    -2.6160 c3         1 8JR       0.148900
      8 C03         -3.1920    -1.1090    -0.9940 ca         1 8JR       0.223100
      9 C04         -2.9640    -0.0760    -1.9210 ca         1 8JR      -0.253000
     10 C05         -2.1850     1.0310    -1.5710 ca         1 8JR       0.061000
     11 C06         -1.6150     1.1350    -0.2870 ca         1 8JR      -0.336500
     12 C11          1.7390     1.0860    -0.2150 ca         1 8JR       0.136000
     13 C12          1.5160     0.7050    -1.5540 ca         1 8JR      -0.084000
     14 C14          3.3790    -0.8610    -1.4480 ca         1 8JR      -0.062000
     15 C16          4.7590    -1.1270     0.6440 c          1 8JR       0.721600
     16 C19          2.8060     0.4810     0.4980 ca         1 8JR       0.180000
     17 C23         -1.5160    -0.9030     2.8870 ca         1 8JR      -0.069000
     18 C25         -2.8510    -2.0640     1.2330 ca         1 8JR      -0.057000
     19 F20          3.0070     0.8200     1.7960 f          1 8JR      -0.168000
     20 N10          0.9230     2.0410     0.4190 nu         1 8JR      -0.849100
     21 O17          4.8780    -2.3410     0.5710 o          1 8JR      -0.705000
     22 O18          5.5540    -0.4060     1.2300 o          1 8JR      -0.705000
     23 S07         -0.6150     2.6030     0.0390 sy         1 8JR       1.145600
     24 H1           2.1450    -0.5540    -3.1960 ha         1 8JR       0.099000
     25 H2          -0.6730     0.9610     2.3140 ha         1 8JR       0.125000
     26 H3          -2.4760    -2.8070     3.2280 ha         1 8JR       0.108000
     27 H4          -3.8040    -2.4060    -3.4050 h1         1 8JR       0.044367
     28 H5          -5.1250    -3.3240    -2.6540 h1         1 8JR       0.044367
     29 H6          -5.2670    -1.5630    -2.8270 h1         1 8JR       0.044367
     30 H7          -3.3830    -0.1110    -2.9220 ha         1 8JR       0.118000
     31 H8          -2.0300     1.8110    -2.3150 ha         1 8JR       0.138000
     32 H9           0.7160     1.1530    -2.1340 ha         1 8JR       0.120000
     33 H10          4.0040    -1.6100    -1.9320 ha         1 8JR       0.131000
     34 H11         -1.0840    -0.8540     3.8850 ha         1 8JR       0.108000
     35 H12         -3.4550    -2.9290     0.9700 ha         1 8JR       0.121000
     36 H13          1.0830     2.2390     1.3980 hn         1 8JR       0.489000
     37 O08         -0.4290     3.3870    -1.1850 o          1 8JR      -0.559000
     38 O09         -1.0400     3.2270     1.2940 o          1 8JR      -0.559000
     39 O02         -3.9590    -2.2140    -1.3220 os         1 8JR      -0.335100
@<TRIPOS>BOND
     1     1    13 ar  
     2     1    14 ar  
     3     1    24 1   
     4     2    14 ar  
     5     2    15 1   
     6     2    16 ar  
     7     3     4 ar  
     8     3     6 ar  
     9     3    11 ar  
    10     4    17 ar  
    11     4    25 1   
    12     5    17 ar  
    13     5    18 ar  
    14     5    26 1   
    15     6     8 ar  
    16     6    18 ar  
    17     7    27 1   
    18     7    28 1   
    19     7    29 1   
    20     7    39 1   
    21     8     9 ar  
    22     8    39 1   
    23     9    10 ar  
    24     9    30 1   
    25    10    11 ar  
    26    10    31 1   
    27    11    23 1   
    28    12    13 ar  
    29    12    16 ar  
    30    12    20 1   
    31    13    32 1   
    32    14    33 1   
    33    15    21 1   
    34    15    22 1   
    35    16    19 1   
    36    17    34 1   
    37    18    35 1   
    38    20    23 1   
    39    20    36 1   
    40    23    37 2   
    41    23    38 2   
@<TRIPOS>SUBSTRUCTURE
     1 8JR         1 TEMP              0 ****  ****    0 ROOT
