@<TRIPOS>MOLECULE
8JR
   39    41     1     0     0
SMALL
abcg2


@<TRIPOS>ATOM
      1 C13          2.9080     0.9180    -2.3940 ca         1 8JR      -0.158000
      2 C15          2.5150    -0.8840    -0.8130 ca         1 8JR      -0.161600
      3 C21         -1.7580     0.2750     0.9240 ca         1 8JR       0.090000
      4 C22         -1.5190     0.6070     2.2780 ca         1 8JR      -0.130000
      5 C24         -2.4510    -1.4920     3.0100 ca         1 8JR      -0.132000
      6 C26         -2.3630    -0.9810     0.6480 ca         1 8JR      -0.075000
      7 C01         -3.4760    -3.0160    -2.1760 c3         1 8JR       0.148900
      8 C03         -2.6220    -1.3640    -0.7070 ca         1 8JR       0.223100
      9 C04         -2.2880    -0.5250    -1.7420 ca         1 8JR      -0.253000
     10 C05         -1.6840     0.7070    -1.4700 ca         1 8JR       0.061000
     11 C06         -1.4250     1.1110    -0.1860 ca         1 8JR      -0.336500
     12 C11          1.7000     1.3730    -0.3730 ca         1 8JR       0.136000
     13 C12          2.2520     1.8160    -1.5670 ca         1 8JR      -0.084000
     14 C14          3.0200    -0.4130    -2.0240 ca         1 8JR      -0.062000
     15 C16          2.7110    -2.3500    -0.4300 c          1 8JR       0.721600
     16 C19          1.8550     0.0360    -0.0140 ca         1 8JR       0.180000
     17 C23         -1.8550    -0.2530     3.2890 ca         1 8JR      -0.069000
     18 C25         -2.7020    -1.8460     1.7120 ca         1 8JR      -0.057000
     19 F20          1.3070    -0.3370     1.1490 f          1 8JR      -0.168000
     20 N10          0.9820     2.2670     0.4580 nu         1 8JR      -0.849100
     21 O17          2.8060    -3.1430    -1.3830 o          1 8JR      -0.705000
     22 O18          2.7800    -2.6110     0.7820 o          1 8JR      -0.705000
     23 S07         -0.5790     2.6510     0.0030 sy         1 8JR       1.145600
     24 H1           3.3340     1.2600    -3.3280 ha         1 8JR       0.099000
     25 H2          -1.0850     1.5560     2.5480 ha         1 8JR       0.125000
     26 H3          -2.7150    -2.1620     3.8170 ha         1 8JR       0.108000
     27 H4          -2.5660    -3.1130    -2.7710 h1         1 8JR       0.044367
     28 H5          -3.9320    -3.9950    -2.0630 h1         1 8JR       0.044367
     29 H6          -4.1740    -2.3530    -2.6910 h1         1 8JR       0.044367
     30 H7          -2.4710    -0.7900    -2.7730 ha         1 8JR       0.118000
     31 H8          -1.4230     1.3380    -2.3070 ha         1 8JR       0.138000
     32 H9           2.1660     2.8590    -1.8390 ha         1 8JR       0.120000
     33 H10          3.5240    -1.1110    -2.6790 ha         1 8JR       0.131000
     34 H11         -1.6610     0.0320     4.3140 ha         1 8JR       0.108000
     35 H12         -3.1650    -2.7990     1.4990 ha         1 8JR       0.121000
     36 H13          1.0620     2.0970     1.4550 hn         1 8JR       0.489000
     37 O08         -0.4930     3.2710    -1.3060 o          1 8JR      -0.559000
     38 O09         -1.1300     3.4200     1.1070 o          1 8JR      -0.559000
     39 O02         -3.1920    -2.5560    -0.8640 os         1 8JR      -0.335100
@<TRIPOS>BOND
     1     1    13 ar  
     2     1    14 ar  
     3     1    24 1   
     4     2    14 ar  
     5     2    15 1   
     6     2    16 ar  
     7     3     4 ar  
     8     3     6 ar  
     9     3    11 ar  
    10     4    17 ar  
    11     4    25 1   
    12     5    17 ar  
    13     5    18 ar  
    14     5    26 1   
    15     6     8 ar  
    16     6    18 ar  
    17     7    27 1   
    18     7    28 1   
    19     7    29 1   
    20     7    39 1   
    21     8     9 ar  
    22     8    39 1   
    23     9    10 ar  
    24     9    30 1   
    25    10    11 ar  
    26    10    31 1   
    27    11    23 1   
    28    12    13 ar  
    29    12    16 ar  
    30    12    20 1   
    31    13    32 1   
    32    14    33 1   
    33    15    21 1   
    34    15    22 1   
    35    16    19 1   
    36    17    34 1   
    37    18    35 1   
    38    20    23 1   
    39    20    36 1   
    40    23    37 2   
    41    23    38 2   
@<TRIPOS>SUBSTRUCTURE
     1 8JR         1 TEMP              0 ****  ****    0 ROOT
