@<TRIPOS>MOLECULE
8JS
   33    34     1     0     0
SMALL
abcg2


@<TRIPOS>ATOM
      1 C16         -4.2500     0.1130    -1.1530 ca         1 8JS      -0.074000
      2 C21         -4.7450    -0.8550     0.9920 ca         1 8JS      -0.074000
      3 C5           1.5110     0.3260     0.9180 ca         1 8JS      -0.146000
      4 C13          1.9730    -1.4910    -0.5980 ca         1 8JS      -0.146000
      5 C17         -5.5530     0.5720    -1.2510 ca         1 8JS      -0.141500
      6 C20         -6.0590    -0.4150     0.8970 ca         1 8JS      -0.141500
      7 C6           2.8550     0.6580     0.9180 ca         1 8JS       0.012000
      8 C12          3.3150    -1.1670    -0.5920 ca         1 8JS       0.012000
      9 C15         -3.8400    -0.5930    -0.0270 ca         1 8JS       0.030600
     10 C4           1.0590    -0.7410     0.1450 ca         1 8JS       0.119600
     11 C18         -6.4350     0.3000    -0.2220 ca         1 8JS       0.178000
     12 C7           3.7490    -0.0850     0.1630 ca         1 8JS      -0.289500
     13 C2          -1.3940    -0.3790     0.0560 cs         1 8JS       0.470400
     14 N10          6.1460    -0.9430     0.8710 n8         1 8JS      -1.006100
     15 N14         -2.5280    -1.1050     0.0740 ns         1 8JS      -0.371100
     16 N3          -0.2770    -1.1490     0.1230 ns         1 8JS      -0.374100
     17 O9           5.9380     0.3200    -1.2530 o          1 8JS      -0.541000
     18 O11          5.6190     1.5970     0.8710 o          1 8JS      -0.541000
     19 F19         -7.6990     0.7410    -0.3160 f          1 8JS      -0.173000
     20 S1          -1.3820     1.2860    -0.0590 s          1 8JS      -0.586400
     21 S8           5.4570     0.3570     0.1220 sy         1 8JS       1.128600
     22 H1          -3.5530     0.3030    -1.9570 ha         1 8JS       0.129500
     23 H2          -4.4290    -1.4050     1.8690 ha         1 8JS       0.129500
     24 H3           0.8240     0.8920     1.5270 ha         1 8JS       0.134000
     25 H4           1.6280    -2.3280    -1.1920 ha         1 8JS       0.134000
     26 H5          -5.8790     1.1230    -2.1230 ha         1 8JS       0.138500
     27 H6          -6.7690    -0.6190     1.6870 ha         1 8JS       0.138500
     28 H7           3.1940     1.4900     1.5200 ha         1 8JS       0.141500
     29 H8           4.0070    -1.7540    -1.1810 ha         1 8JS       0.141500
     30 H9           5.9790    -0.9530     1.8720 hn         1 8JS       0.473500
     31 H10          7.1420    -0.9950     0.6800 hn         1 8JS       0.473500
     32 H11         -2.4570    -2.0950     0.2680 hn         1 8JS       0.311500
     33 H12         -0.4050    -2.1400    -0.0290 hn         1 8JS       0.309500
@<TRIPOS>BOND
     1     1     5 ar  
     2     1     9 ar  
     3     1    22 1   
     4     2     6 ar  
     5     2     9 ar  
     6     2    23 1   
     7     3     7 ar  
     8     3    10 ar  
     9     3    24 1   
    10     4     8 ar  
    11     4    10 ar  
    12     4    25 1   
    13     5    11 ar  
    14     5    26 1   
    15     6    11 ar  
    16     6    27 1   
    17     7    12 ar  
    18     7    28 1   
    19     8    12 ar  
    20     8    29 1   
    21     9    15 1   
    22    10    16 1   
    23    11    19 1   
    24    12    21 1   
    25    13    15 1   
    26    13    16 1   
    27    13    20 2   
    28    14    21 1   
    29    14    30 1   
    30    14    31 1   
    31    15    32 1   
    32    16    33 1   
    33    17    21 2   
    34    18    21 2   
@<TRIPOS>SUBSTRUCTURE
     1 8JS         1 TEMP              0 ****  ****    0 ROOT
