@<TRIPOS>MOLECULE
8JS
   33    34     1     0     0
SMALL
No Charge or Current Charge


@<TRIPOS>ATOM
      1 C16         -4.3720     0.5770    -0.7930 ca         1 8JS      -0.074000
      2 C21         -4.8010    -1.2450     0.7610 ca         1 8JS      -0.074000
      3 C5           1.7000     0.5010     0.5850 ca         1 8JS      -0.146000
      4 C13          1.9960    -1.5930    -0.6030 ca         1 8JS      -0.146000
      5 C17         -5.7500     0.8590    -0.8400 ca         1 8JS      -0.141500
      6 C20         -6.1780    -0.9620     0.7140 ca         1 8JS      -0.141500
      7 C6           3.0920     0.7000     0.5900 ca         1 8JS       0.012000
      8 C12          3.3890    -1.4040    -0.6040 ca         1 8JS       0.012000
      9 C15         -3.8860    -0.4690     0.0210 ca         1 8JS       0.030600
     10 C4           1.1420    -0.6380    -0.0260 ca         1 8JS       0.119600
     11 C18         -6.6470     0.0920    -0.0830 ca         1 8JS       0.178000
     12 C7           3.9420    -0.2530    -0.0090 ca         1 8JS      -0.289500
     13 C2          -1.3540    -0.0740    -0.0470 cs         1 8JS       0.470400
     14 N10          6.1640    -0.8380     1.3300 n8         1 8JS      -1.006100
     15 N14         -2.5090    -0.8050     0.0890 ns         1 8JS      -0.371100
     16 N3          -0.2510    -0.8900    -0.0380 ns         1 8JS      -0.374100
     17 O9           6.3340    -0.7290    -1.1240 o          1 8JS      -0.541000
     18 O11          6.0350     1.3770     0.3170 o          1 8JS      -0.541000
     19 F19         -7.9700     0.3620    -0.1310 f          1 8JS      -0.173000
     20 S1          -1.3000     1.5920    -0.2050 s          1 8JS      -0.586400
     21 S8           5.7180    -0.0110    -0.0080 sy         1 8JS       1.128600
     22 H1          -3.6960     1.1630    -1.4090 ha         1 8JS       0.129500
     23 H2          -4.4440    -2.0640     1.3820 ha         1 8JS       0.129500
     24 H3           1.0680     1.2320     1.0780 ha         1 8JS       0.134000
     25 H4           1.5810    -2.4860    -1.0650 ha         1 8JS       0.134000
     26 H5          -6.1220     1.6650    -1.4670 ha         1 8JS       0.138500
     27 H6          -6.8800    -1.5570     1.2930 ha         1 8JS       0.138500
     28 H7           3.5010     1.5910     1.0650 ha         1 8JS       0.141500
     29 H8           4.0310    -2.1540    -1.0640 ha         1 8JS       0.141500
     30 H9           5.3010    -0.8640     1.8670 hn         1 8JS       0.473500
     31 H10          6.7280    -0.1400     1.8090 hn         1 8JS       0.473500
     32 H11         -2.3580    -1.7900     0.2640 hn         1 8JS       0.311500
     33 H12         -0.4640    -1.8790    -0.0270 hn         1 8JS       0.309500
@<TRIPOS>BOND
     1     1     5 ar  
     2     1     9 ar  
     3     1    22 1   
     4     2     6 ar  
     5     2     9 ar  
     6     2    23 1   
     7     3     7 ar  
     8     3    10 ar  
     9     3    24 1   
    10     4     8 ar  
    11     4    10 ar  
    12     4    25 1   
    13     5    11 ar  
    14     5    26 1   
    15     6    11 ar  
    16     6    27 1   
    17     7    12 ar  
    18     7    28 1   
    19     8    12 ar  
    20     8    29 1   
    21     9    15 1   
    22    10    16 1   
    23    11    19 1   
    24    12    21 1   
    25    13    15 1   
    26    13    16 1   
    27    13    20 2   
    28    14    21 1   
    29    14    30 1   
    30    14    31 1   
    31    15    32 1   
    32    16    33 1   
    33    17    21 2   
    34    18    21 2   
@<TRIPOS>SUBSTRUCTURE
     1 8JS         1 TEMP              0 ****  ****    0 ROOT
