@<TRIPOS>MOLECULE
8JT
   34    36     1     0     0
SMALL
No Charge or Current Charge


@<TRIPOS>ATOM
      1 C4          -1.4380     0.8110    -0.7690 ca         1 8JT      -0.092000
      2 C5          -0.5500    -0.2890    -0.7310 ca         1 8JT      -0.196300
      3 C6           0.8780    -0.1240    -1.1980 c3         1 8JT       0.164900
      4 C7           3.1980     0.5270    -0.2440 c5         1 8JT       0.092300
      5 C8           3.8180    -0.8720    -0.4400 c5         1 8JT      -0.099900
      6 C9           5.3180    -0.5840    -0.1300 c5         1 8JT      -0.079400
      7 C10          5.3000     0.6400     0.8490 c5         1 8JT      -0.079400
      8 C11          3.7930     0.8950     1.1280 c5         1 8JT      -0.099900
      9 C12         -4.8870     0.8070     0.2170 c5         1 8JT       0.368600
     10 O1          -4.4760    -0.5690     0.5410 os         1 8JT      -0.319100
     11 C2          -3.1780    -0.5940     0.1470 ca         1 8JT       0.108100
     12 C1          -2.3260    -1.7040     0.2020 ca         1 8JT      -0.095000
     13 O           -3.7240     1.5610    -0.2810 os         1 8JT      -0.329100
     14 C3          -2.7500     0.6170    -0.3200 ca         1 8JT       0.068100
     15 C           -0.9970    -1.5430    -0.2460 ca         1 8JT      -0.066000
     16 N            1.7040     0.3110    -0.0070 ny         1 8JT      -0.821000
     17 H1          -1.1200     1.7850    -1.1340 ha         1 8JT       0.136000
     18 H3           1.2740    -1.0660    -1.5890 hx         1 8JT       0.101200
     19 H2           0.9520     0.6330    -1.9850 hx         1 8JT       0.101200
     20 H4           3.3940     1.2460    -1.0470 hx         1 8JT       0.100700
     21 H5           3.4090    -1.6120     0.2580 hc         1 8JT       0.069950
     22 H6           3.6680    -1.2620    -1.4540 hc         1 8JT       0.069950
     23 H8           5.8110    -1.4580     0.3110 hc         1 8JT       0.073700
     24 H7           5.8720    -0.3390    -1.0450 hc         1 8JT       0.073700
     25 H10          5.8580     0.4420     1.7720 hc         1 8JT       0.073700
     26 H9           5.7660     1.5170     0.3820 hc         1 8JT       0.073700
     27 H11          3.5880     1.9340     1.4130 hc         1 8JT       0.069950
     28 H12          3.4250     0.2510     1.9370 hc         1 8JT       0.069950
     29 H13         -5.6570     0.7780    -0.5630 h2         1 8JT       0.088700
     30 H14         -5.2850     1.2940     1.1150 h2         1 8JT       0.088700
     31 H15         -2.6820    -2.6590     0.5790 ha         1 8JT       0.160000
     32 H16         -0.3150    -2.3920    -0.2140 ha         1 8JT       0.126000
     33 H18          1.2690     1.1750     0.3750 hn         1 8JT       0.499000
     34 H17          1.5380    -0.3680     0.7630 hn         1 8JT       0.499000
@<TRIPOS>BOND
     1     1     2 ar  
     2     1    14 ar  
     3     1    17 1   
     4     2     3 1   
     5     2    15 ar  
     6     3    16 1   
     7     3    18 1   
     8     3    19 1   
     9     4     5 1   
    10     4     8 1   
    11     4    16 1   
    12     4    20 1   
    13     5     6 1   
    14     5    21 1   
    15     5    22 1   
    16     6     7 1   
    17     6    23 1   
    18     6    24 1   
    19     7     8 1   
    20     7    25 1   
    21     7    26 1   
    22     8    27 1   
    23     8    28 1   
    24     9    10 1   
    25     9    13 1   
    26     9    29 1   
    27     9    30 1   
    28    10    11 1   
    29    11    12 ar  
    30    11    14 ar  
    31    12    15 ar  
    32    12    31 1   
    33    13    14 1   
    34    15    32 1   
    35    16    33 1   
    36    16    34 1   
@<TRIPOS>SUBSTRUCTURE
     1 8JT         1 TEMP              0 ****  ****    0 ROOT
