@<TRIPOS>MOLECULE
8JT
   34    36     1     0     0
SMALL
bcc


@<TRIPOS>ATOM
      1 C4          -1.3830     0.7350    -0.6440 ca         1 8JT      -0.110000
      2 C5          -0.5560    -0.4010    -0.5980 ca         1 8JT      -0.196300
      3 C6           0.8730    -0.2790    -1.0280 c3         1 8JT       0.193100
      4 C7           3.1290     0.5700    -0.3000 c5         1 8JT       0.120500
      5 C8           3.8720    -0.7130    -0.6760 c5         1 8JT      -0.099900
      6 C9           5.3080    -0.4140    -0.2550 c5         1 8JT      -0.079400
      7 C10          5.1320     0.2960     1.0850 c5         1 8JT      -0.079400
      8 C11          3.9080     1.1990     0.8740 c5         1 8JT      -0.099900
      9 C12         -4.8530     0.7970     0.1640 c5         1 8JT       0.322200
     10 O1          -4.4590    -0.5050     0.5810 os         1 8JT      -0.295900
     11 C2          -3.1630    -0.6420     0.2270 ca         1 8JT       0.108100
     12 C1          -2.3710    -1.7610     0.2800 ca         1 8JT      -0.113000
     13 O           -3.6620     1.5040    -0.1600 os         1 8JT      -0.305900
     14 C3          -2.6780     0.5790    -0.2240 ca         1 8JT       0.068100
     15 C           -1.0450    -1.6160    -0.1430 ca         1 8JT      -0.084000
     16 N            1.7040     0.3110     0.0670 ny         1 8JT      -0.767000
     17 H1          -1.0170     1.6880    -1.0060 ha         1 8JT       0.154000
     18 H3           1.3020    -1.2470    -1.2750 hx         1 8JT       0.101200
     19 H2           0.9830     0.3810    -1.8880 hx         1 8JT       0.101200
     20 H4           3.0850     1.2540    -1.1470 hx         1 8JT       0.100700
     21 H5           3.4950    -1.5590    -0.0930 hc         1 8JT       0.069950
     22 H6           3.7700    -0.9670    -1.7310 hc         1 8JT       0.069950
     23 H8           5.9180    -1.3150    -0.1890 hc         1 8JT       0.073700
     24 H7           5.7830     0.2520    -0.9800 hc         1 8JT       0.073700
     25 H10          4.9300    -0.4390     1.8670 hc         1 8JT       0.073700
     26 H9           6.0130     0.8600     1.3900 hc         1 8JT       0.073700
     27 H11          4.2070     2.2110     0.6040 hc         1 8JT       0.069950
     28 H12          3.2970     1.2810     1.7760 hc         1 8JT       0.069950
     29 H13         -5.4950     0.7260    -0.7190 h2         1 8JT       0.088700
     30 H14         -5.3730     1.3030     0.9770 h2         1 8JT       0.088700
     31 H15         -2.7500    -2.7130     0.6270 ha         1 8JT       0.178000
     32 H16         -0.3920    -2.4790    -0.1220 ha         1 8JT       0.144000
     33 H18          1.2740     1.1890     0.3650 hn         1 8JT       0.443800
     34 H17          1.6650    -0.2980     0.8870 hn         1 8JT       0.443800
@<TRIPOS>BOND
     1     1     2 ar  
     2     1    14 ar  
     3     1    17 1   
     4     2     3 1   
     5     2    15 ar  
     6     3    16 1   
     7     3    18 1   
     8     3    19 1   
     9     4     5 1   
    10     4     8 1   
    11     4    16 1   
    12     4    20 1   
    13     5     6 1   
    14     5    21 1   
    15     5    22 1   
    16     6     7 1   
    17     6    23 1   
    18     6    24 1   
    19     7     8 1   
    20     7    25 1   
    21     7    26 1   
    22     8    27 1   
    23     8    28 1   
    24     9    10 1   
    25     9    13 1   
    26     9    29 1   
    27     9    30 1   
    28    10    11 1   
    29    11    12 ar  
    30    11    14 ar  
    31    12    15 ar  
    32    12    31 1   
    33    13    14 1   
    34    15    32 1   
    35    16    33 1   
    36    16    34 1   
@<TRIPOS>SUBSTRUCTURE
     1 8JT         1 TEMP              0 ****  ****    0 ROOT
