@<TRIPOS>MOLECULE
8JV
   57    59     1     0     0
SMALL
No Charge or Current Charge


@<TRIPOS>ATOM
      1 C12        -13.1800    -7.1020    26.1420 c5         1 8JV      -0.079400
      2 C13        -14.4460    -6.4500    25.5320 c5         1 8JV      -0.090400
      3 C14        -14.5350    -7.0760    24.1060 c5         1 8JV       0.164000
      4 C15        -15.4170    -8.3340    24.1880 ca         1 8JV      -0.079300
      5 C16        -16.7840    -8.2220    23.8590 ca         1 8JV      -0.092000
      6 C02        -14.1530    -5.8260    19.3230 c          1 8JV       0.688000
      7 C03        -12.9520    -6.8500    19.3970 c3         1 8JV       0.026500
      8 C05        -13.7570    -8.1710    21.4210 c3         1 8JV       0.088800
      9 C08        -12.2040    -7.1130    24.9280 c5         1 8JV      -0.021300
     10 C09        -11.0230    -8.1150    25.2080 c          1 8JV       0.735000
     11 C17        -17.6330    -9.3410    23.9080 ca         1 8JV      -0.124500
     12 C18        -17.1310   -10.5980    24.2880 ca         1 8JV      -0.107300
     13 C19        -18.0490   -11.8100    24.3370 c3         1 8JV      -0.031800
     14 C20        -15.7700   -10.7220    24.6150 ca         1 8JV      -0.124500
     15 C21        -14.9210    -9.6030    24.5660 ca         1 8JV      -0.092000
     16 C23        -12.3000    -7.0730    18.0060 c3         1 8JV      -0.048400
     17 C24        -11.7350    -5.7850    17.3640 c3         1 8JV      -0.041100
     18 C25        -11.0470    -6.0610    16.0340 ca         1 8JV      -0.032300
     19 C26         -9.6610    -6.3110    15.9880 ca         1 8JV      -0.116500
     20 C27         -9.0270    -6.5690    14.7600 ca         1 8JV      -0.121000
     21 C28         -9.7760    -6.5800    13.5710 ca         1 8JV      -0.146000
     22 C29        -11.1580    -6.3330    13.6100 ca         1 8JV      -0.121000
     23 C30        -11.7920    -6.0750    14.8380 ca         1 8JV      -0.116500
     24 N04        -13.3150    -8.1880    19.9830 n7         1 8JV      -0.828400
     25 N07        -13.1330    -7.4490    23.8050 n          1 8JV      -0.403800
     26 O10        -11.2360    -9.3220    25.2310 o          1 8JV      -0.733500
     27 O11         -9.9020    -7.6610    25.4010 o          1 8JV      -0.733500
     28 H121       -13.3940    -8.1130    26.5060 hc         1 8JV       0.040700
     29 H122       -12.7820    -6.5340    26.9900 hc         1 8JV       0.040700
     30 H131       -14.3150    -5.3640    25.4600 hc         1 8JV       0.029700
     31 H132       -15.3450    -6.6210    26.1350 hc         1 8JV       0.029700
     32 H141       -14.9340    -6.3520    23.3820 h1         1 8JV       0.056700
     33 H161       -17.1930    -7.2580    23.5620 ha         1 8JV       0.146500
     34 H031       -12.1870    -6.3780    20.0290 h1         1 8JV       0.058700
     35 H052       -14.6160    -7.4970    21.5220 h1         1 8JV       0.041700
     36 H051       -14.1100    -9.1700    21.7100 h1         1 8JV       0.041700
     37 H081       -11.7760    -6.1150    24.7670 h1         1 8JV       0.043700
     38 H171       -18.6830    -9.2290    23.6480 ha         1 8JV       0.094000
     39 H193       -18.0630   -12.3270    23.3710 hc         1 8JV       0.024033
     40 H192       -17.7200   -12.5290    25.0980 hc         1 8JV       0.024033
     41 H191       -19.0790   -11.5220    24.5800 hc         1 8JV       0.024033
     42 H201       -15.3660   -11.6880    24.9070 ha         1 8JV       0.094000
     43 H211       -13.8730    -9.7330    24.8230 ha         1 8JV       0.146500
     44 H232       -13.0340    -7.5210    17.3240 hc         1 8JV       0.029700
     45 H231       -11.4810    -7.7950    18.1090 hc         1 8JV       0.029700
     46 H242       -11.0310    -5.3150    18.0620 hc         1 8JV       0.068200
     47 H241       -12.5460    -5.0610    17.2170 hc         1 8JV       0.068200
     48 H261        -9.0750    -6.3080    16.9040 ha         1 8JV       0.118500
     49 H271        -7.9570    -6.7620    14.7300 ha         1 8JV       0.091500
     50 H281        -9.2850    -6.7800    12.6210 ha         1 8JV       0.087000
     51 H291       -11.7380    -6.3420    12.6910 ha         1 8JV       0.091500
     52 H301       -12.8630    -5.8870    14.8610 ha         1 8JV       0.118500
     53 H1         -14.0890    -8.5640    19.4190 hn         1 8JV       0.407000
     54 C06        -12.6810    -7.7580    22.4980 c          1 8JV       0.609100
     55 O01        -15.1500    -6.1320    18.6810 o          1 8JV      -0.745500
     56 O22        -11.4790    -7.7410    22.2440 o          1 8JV      -0.580100
     57 O31        -14.0740    -4.7920    19.9740 o          1 8JV      -0.745500
@<TRIPOS>BOND
     1     1     2 1   
     2     1     9 1   
     3     1    28 1   
     4     1    29 1   
     5     2     3 1   
     6     2    30 1   
     7     2    31 1   
     8     3     4 1   
     9     3    25 1   
    10     3    32 1   
    11     4     5 ar  
    12     4    15 ar  
    13     5    11 ar  
    14     5    33 1   
    15     6     7 1   
    16     6    55 1   
    17     6    57 1   
    18     7    16 1   
    19     7    24 1   
    20     7    34 1   
    21     8    24 1   
    22     8    35 1   
    23     8    36 1   
    24     8    54 1   
    25     9    10 1   
    26     9    25 1   
    27     9    37 1   
    28    10    26 1   
    29    10    27 1   
    30    11    12 ar  
    31    11    38 1   
    32    12    13 1   
    33    12    14 ar  
    34    13    39 1   
    35    13    40 1   
    36    13    41 1   
    37    14    15 ar  
    38    14    42 1   
    39    15    43 1   
    40    16    17 1   
    41    16    44 1   
    42    16    45 1   
    43    17    18 1   
    44    17    46 1   
    45    17    47 1   
    46    18    19 ar  
    47    18    23 ar  
    48    19    20 ar  
    49    19    48 1   
    50    20    21 ar  
    51    20    49 1   
    52    21    22 ar  
    53    21    50 1   
    54    22    23 ar  
    55    22    51 1   
    56    23    52 1   
    57    24    53 1   
    58    25    54 1   
    59    54    56 2   
@<TRIPOS>SUBSTRUCTURE
     1 8JV         1 TEMP              0 ****  ****    0 ROOT
