@<TRIPOS>MOLECULE
8JV
   57    59     1     0     0
SMALL
abcg2


@<TRIPOS>ATOM
      1 C12        -12.8740    -7.4250    25.9680 c5         1 8JV      -0.079400
      2 C13        -14.0420    -6.6050    25.4430 c5         1 8JV      -0.090400
      3 C14        -14.3530    -7.2500    24.0840 c5         1 8JV       0.164000
      4 C15        -15.4120    -8.3250    24.1800 ca         1 8JV      -0.079300
      5 C16        -16.7530    -7.9500    24.1500 ca         1 8JV      -0.092000
      6 C02        -14.3060    -5.9970    19.1360 c          1 8JV       0.688000
      7 C03        -13.0260    -6.8340    19.3960 c3         1 8JV       0.026500
      8 C05        -13.7890    -8.0410    21.3520 c3         1 8JV       0.088800
      9 C08        -12.0390    -7.7040    24.7160 c5         1 8JV      -0.021300
     10 C09        -11.2200    -9.0040    24.8880 c          1 8JV       0.735000
     11 C17        -17.7620    -8.8920    24.2790 ca         1 8JV      -0.124500
     12 C18        -17.4640   -10.2450    24.4350 ca         1 8JV      -0.107300
     13 C19        -18.5550   -11.2700    24.5390 c3         1 8JV      -0.031800
     14 C20        -16.1220   -10.6140    24.4590 ca         1 8JV      -0.124500
     15 C21        -15.1080    -9.6730    24.3320 ca         1 8JV      -0.092000
     16 C23        -12.2630    -7.0680    18.0880 c3         1 8JV      -0.048400
     17 C24        -11.7520    -5.8000    17.4210 c3         1 8JV      -0.041100
     18 C25        -10.9760    -6.0040    16.1420 ca         1 8JV      -0.032300
     19 C26        -10.6320    -4.8870    15.3770 ca         1 8JV      -0.116500
     20 C27         -9.9140    -5.0140    14.1980 ca         1 8JV      -0.121000
     21 C28         -9.5230    -6.2710    13.7500 ca         1 8JV      -0.146000
     22 C29         -9.8610    -7.3890    14.4960 ca         1 8JV      -0.121000
     23 C30        -10.5800    -7.2560    15.6790 ca         1 8JV      -0.116500
     24 N04        -13.2960    -8.1320    20.0000 n7         1 8JV      -0.828400
     25 N07        -13.0400    -7.7210    23.6560 n          1 8JV      -0.403800
     26 O10        -11.7450   -10.0830    24.5550 o          1 8JV      -0.733500
     27 O11        -10.1100    -8.8420    25.4290 o          1 8JV      -0.733500
     28 H121       -13.2350    -8.3610    26.4040 hc         1 8JV       0.040700
     29 H122       -12.3000    -6.9070    26.7350 hc         1 8JV       0.040700
     30 H131       -13.7330    -5.5680    25.2870 hc         1 8JV       0.029700
     31 H132       -14.9080    -6.5990    26.1030 hc         1 8JV       0.029700
     32 H141       -14.7180    -6.4780    23.4010 h1         1 8JV       0.056700
     33 H161       -17.0160    -6.9050    24.0250 ha         1 8JV       0.146500
     34 H031       -12.3720    -6.2750    20.0730 h1         1 8JV       0.058700
     35 H052       -14.5050    -7.2200    21.5040 h1         1 8JV       0.041700
     36 H051       -14.3500    -8.9510    21.5850 h1         1 8JV       0.041700
     37 H081       -11.3430    -6.8750    24.5480 h1         1 8JV       0.043700
     38 H171       -18.7970    -8.5700    24.2550 ha         1 8JV       0.094000
     39 H193       -18.8840   -11.5970    23.5490 hc         1 8JV       0.024033
     40 H192       -18.2220   -12.1570    25.0770 hc         1 8JV       0.024033
     41 H191       -19.4310   -10.8740    25.0520 hc         1 8JV       0.024033
     42 H201       -15.8610   -11.6590    24.5800 ha         1 8JV       0.094000
     43 H211       -14.0710    -9.9900    24.3490 ha         1 8JV       0.146500
     44 H232       -12.9080    -7.6180    17.3930 hc         1 8JV       0.029700
     45 H231       -11.4230    -7.7300    18.3180 hc         1 8JV       0.029700
     46 H242       -11.1160    -5.2580    18.1300 hc         1 8JV       0.068200
     47 H241       -12.5830    -5.1250    17.2090 hc         1 8JV       0.068200
     48 H261       -10.9340    -3.9020    15.7140 ha         1 8JV       0.118500
     49 H271        -9.6610    -4.1300    13.6250 ha         1 8JV       0.091500
     50 H281        -8.9640    -6.3740    12.8290 ha         1 8JV       0.087000
     51 H291        -9.5660    -8.3750    14.1580 ha         1 8JV       0.091500
     52 H301       -10.8310    -8.1490    16.2380 ha         1 8JV       0.118500
     53 H1         -14.0200    -8.5690    19.4420 hn         1 8JV       0.407000
     54 C06        -12.6660    -7.9410    22.3780 c          1 8JV       0.609100
     55 O01        -15.3260    -6.6380    18.8070 o          1 8JV      -0.745500
     56 O22        -11.4910    -8.0840    22.0730 o          1 8JV      -0.580100
     57 O31        -14.2040    -4.7580    19.2440 o          1 8JV      -0.745500
@<TRIPOS>BOND
     1     1     2 1   
     2     1     9 1   
     3     1    28 1   
     4     1    29 1   
     5     2     3 1   
     6     2    30 1   
     7     2    31 1   
     8     3     4 1   
     9     3    25 1   
    10     3    32 1   
    11     4     5 ar  
    12     4    15 ar  
    13     5    11 ar  
    14     5    33 1   
    15     6     7 1   
    16     6    55 1   
    17     6    57 1   
    18     7    16 1   
    19     7    24 1   
    20     7    34 1   
    21     8    24 1   
    22     8    35 1   
    23     8    36 1   
    24     8    54 1   
    25     9    10 1   
    26     9    25 1   
    27     9    37 1   
    28    10    26 1   
    29    10    27 1   
    30    11    12 ar  
    31    11    38 1   
    32    12    13 1   
    33    12    14 ar  
    34    13    39 1   
    35    13    40 1   
    36    13    41 1   
    37    14    15 ar  
    38    14    42 1   
    39    15    43 1   
    40    16    17 1   
    41    16    44 1   
    42    16    45 1   
    43    17    18 1   
    44    17    46 1   
    45    17    47 1   
    46    18    19 ar  
    47    18    23 ar  
    48    19    20 ar  
    49    19    48 1   
    50    20    21 ar  
    51    20    49 1   
    52    21    22 ar  
    53    21    50 1   
    54    22    23 ar  
    55    22    51 1   
    56    23    52 1   
    57    24    53 1   
    58    25    54 1   
    59    54    56 2   
@<TRIPOS>SUBSTRUCTURE
     1 8JV         1 TEMP              0 ****  ****    0 ROOT
