@<TRIPOS>MOLECULE
8JW
   17    17     1     0     0
SMALL
No Charge or Current Charge


@<TRIPOS>ATOM
      1 C4           1.7390     0.8010    -0.0310 cc         1 8JW       0.048800
      2 C5          -2.0340     0.0760     0.0060 c3         1 8JW       0.371200
      3 N1           2.6440     1.8510    -0.0380 nv         1 8JW      -0.925000
      4 F2          -2.7320    -1.0830     0.0380 f          1 8JW      -0.114667
      5 F           -2.4470     0.7520    -1.0900 f          1 8JW      -0.114667
      6 F1          -2.4200     0.7950     1.0840 f          1 8JW      -0.114667
      7 C1          -0.5300    -0.1430    -0.0090 cd         1 8JW      -0.252200
      8 C2           0.0370    -1.4100    -0.0170 cc         1 8JW      -0.021400
      9 N            1.4120    -1.5860    -0.0310 ns         1 8JW      -0.353100
     10 C3           2.3440    -0.5810    -0.0390 c          1 8JW       0.540200
     11 O            3.5450    -0.8290    -0.0510 o          1 8JW      -0.554000
     12 C            0.3720     0.9940    -0.0170 cd         1 8JW      -0.204000
     13 H3           3.6490     1.6660    -0.0470 hn         1 8JW       0.469000
     14 H4           2.3380     2.8230    -0.0320 hn         1 8JW       0.469000
     15 H2          -0.5100    -2.3510    -0.0140 h4         1 8JW       0.219000
     16 H            1.7980    -2.5230    -0.0370 hn         1 8JW       0.335500
     17 H1          -0.0280     2.0050    -0.0110 ha         1 8JW       0.200000
@<TRIPOS>BOND
     1     1     3 1   
     2     1    10 1   
     3     1    12 2   
     4     2     4 1   
     5     2     5 1   
     6     2     6 1   
     7     2     7 1   
     8     3    13 1   
     9     3    14 1   
    10     7     8 2   
    11     7    12 1   
    12     8     9 1   
    13     8    15 1   
    14     9    10 1   
    15     9    16 1   
    16    10    11 2   
    17    12    17 1   
@<TRIPOS>SUBSTRUCTURE
     1 8JW         1 TEMP              0 ****  ****    0 ROOT
