@<TRIPOS>MOLECULE
8JW
   17    17     1     0     0
SMALL
bcc


@<TRIPOS>ATOM
      1 C4           1.7310     0.8070    -0.0910 cc         1 8JW       0.048800
      2 C5          -1.9620     0.0650     0.0130 c3         1 8JW       0.735100
      3 N1           2.6330     1.8270    -0.1980 nv         1 8JW      -0.814600
      4 F2          -2.6540    -1.0780     0.0520 f          1 8JW      -0.235967
      5 F           -2.3880     0.7460    -1.0630 f          1 8JW      -0.235967
      6 F1          -2.3370     0.7880     1.0810 f          1 8JW      -0.235967
      7 C1          -0.4940    -0.1550    -0.0170 cd         1 8JW      -0.252200
      8 C2           0.0320    -1.4010    -0.0070 cc         1 8JW       0.028600
      9 N            1.3800    -1.5500    -0.0300 ns         1 8JW      -0.420100
     10 C3           2.3000    -0.5390    -0.0720 c          1 8JW       0.682700
     11 O            3.5060    -0.7620    -0.0840 o          1 8JW      -0.629500
     12 C            0.3770     0.9700    -0.0530 cd         1 8JW      -0.154000
     13 H3           3.5660     1.6270     0.1260 hn         1 8JW       0.413800
     14 H4           2.3100     2.7450     0.0600 hn         1 8JW       0.413800
     15 H2          -0.5410    -2.3150     0.0210 h4         1 8JW       0.169000
     16 H            1.7510    -2.4910    -0.0190 hn         1 8JW       0.335500
     17 H1          -0.0330     1.9730    -0.0570 ha         1 8JW       0.150000
@<TRIPOS>BOND
     1     1     3 1   
     2     1    10 1   
     3     1    12 2   
     4     2     4 1   
     5     2     5 1   
     6     2     6 1   
     7     2     7 1   
     8     3    13 1   
     9     3    14 1   
    10     7     8 2   
    11     7    12 1   
    12     8     9 1   
    13     8    15 1   
    14     9    10 1   
    15     9    16 1   
    16    10    11 2   
    17    12    17 1   
@<TRIPOS>SUBSTRUCTURE
     1 8JW         1 TEMP              0 ****  ****    0 ROOT
