@<TRIPOS>MOLECULE
8JX
   41    42     1     0     0
SMALL
bcc


@<TRIPOS>ATOM
      1 OAB         -5.6350    -2.4820     0.2840 o          1 8JX      -0.846800
      2 CAR         -6.1140    -1.4880    -0.2950 c          1 8JX       0.928600
      3 OAE         -7.2730    -1.3840    -0.7500 o          1 8JX      -0.846800
      4 CAO         -5.2080    -0.2570    -0.4780 c3         1 8JX      -0.205400
      5 CAM         -3.7850    -0.3910     0.0370 c3         1 8JX      -0.054400
      6 CAL         -2.9650     0.8690    -0.2100 c3         1 8JX      -0.083400
      7 CAN         -1.5580     0.7510     0.3520 c3         1 8JX       0.193800
      8 NAP         -0.7980     1.9650     0.0520 n7         1 8JX      -0.803100
      9 SAW          0.5930     2.2600     0.8790 sy         1 8JX       1.291200
     10 OAC          1.2120     3.4120     0.2400 o          1 8JX      -0.620300
     11 OAD          0.2370     2.3460     2.2870 o          1 8JX      -0.620300
     12 CAT          1.6300     0.8370     0.6850 ca         1 8JX      -0.339500
     13 CAV          2.1420     0.4400    -0.5890 ca         1 8JX       0.078000
     14 CAK          1.9210     1.1520    -1.7920 ca         1 8JX      -0.156000
     15 CAG          2.4180     0.6990    -2.9850 ca         1 8JX      -0.089000
     16 CAF          3.1720    -0.4830    -3.0450 ca         1 8JX      -0.152000
     17 CAJ          3.4190    -1.1900    -1.8990 ca         1 8JX      -0.081000
     18 CAU          2.9140    -0.7510    -0.6550 ca         1 8JX      -0.082000
     19 CAS          3.1720    -1.4960     0.5390 ca         1 8JX       0.212100
     20 OAQ          3.9100    -2.5920     0.3790 os         1 8JX      -0.314900
     21 CAA          4.2080    -3.3920     1.5120 c3         1 8JX       0.124700
     22 CAH          2.6670    -1.0720     1.7450 ca         1 8JX      -0.270000
     23 CAI          1.8890     0.0910     1.8030 ca         1 8JX       0.039000
     24 H2          -5.1910     0.0010    -1.5440 hc         1 8JX       0.017200
     25 H3          -5.6930     0.5980     0.0080 hc         1 8JX       0.017200
     26 H4          -3.7960    -0.6120     1.1080 hc         1 8JX       0.039700
     27 H5          -3.2940    -1.2430    -0.4420 hc         1 8JX       0.039700
     28 H6          -2.9120     1.0680    -1.2860 hc         1 8JX       0.038200
     29 H7          -3.4580     1.7340     0.2430 hc         1 8JX       0.038200
     30 H8          -1.6070     0.6320     1.4350 h1         1 8JX       0.049200
     31 H9          -1.0610    -0.1370    -0.0540 h1         1 8JX       0.049200
     32 H10         -0.7050     2.1500    -0.9410 hn         1 8JX       0.420800
     33 H11          1.3760     2.0830    -1.7930 ha         1 8JX       0.143000
     34 H12          2.2320     1.2650    -3.8880 ha         1 8JX       0.133000
     35 H13          3.5610    -0.8310    -3.9920 ha         1 8JX       0.131000
     36 H14          4.0060    -2.0950    -1.9480 ha         1 8JX       0.141000
     37 H15          4.7900    -2.8390     2.2520 h1         1 8JX       0.046033
     38 H16          3.3010    -3.7760     1.9820 h1         1 8JX       0.046033
     39 H17          4.8000    -4.2270     1.1470 h1         1 8JX       0.046033
     40 H18          2.8450    -1.6160     2.6610 ha         1 8JX       0.140000
     41 H19          1.4950     0.3900     2.7640 ha         1 8JX       0.162000
@<TRIPOS>BOND
     1     1     2 1   
     2     2     3 1   
     3     2     4 1   
     4     4     5 1   
     5     4    24 1   
     6     4    25 1   
     7     5     6 1   
     8     5    26 1   
     9     5    27 1   
    10     6     7 1   
    11     6    28 1   
    12     6    29 1   
    13     7     8 1   
    14     7    30 1   
    15     7    31 1   
    16     8     9 1   
    17     8    32 1   
    18     9    10 2   
    19     9    11 2   
    20     9    12 1   
    21    12    13 ar  
    22    12    23 ar  
    23    13    14 ar  
    24    13    18 ar  
    25    14    15 ar  
    26    14    33 1   
    27    15    16 ar  
    28    15    34 1   
    29    16    17 ar  
    30    16    35 1   
    31    17    18 ar  
    32    17    36 1   
    33    18    19 ar  
    34    19    20 1   
    35    19    22 ar  
    36    20    21 1   
    37    21    37 1   
    38    21    38 1   
    39    21    39 1   
    40    22    23 ar  
    41    22    40 1   
    42    23    41 1   
@<TRIPOS>SUBSTRUCTURE
     1 8JX         1 TEMP              0 ****  ****    0 ROOT
