@<TRIPOS>MOLECULE
8JX
   41    42     1     0     0
SMALL
No Charge or Current Charge


@<TRIPOS>ATOM
      1 OAB         -5.8390    -2.4080     0.2620 o          1 8JX      -0.741500
      2 CAR         -5.4350    -1.7990    -0.7170 c          1 8JX       0.718000
      3 OAE         -5.3840    -2.2810    -1.8390 o          1 8JX      -0.741500
      4 CAO         -4.9050    -0.3680    -0.5150 c3         1 8JX      -0.205400
      5 CAM         -3.3910    -0.3990    -0.1890 c3         1 8JX      -0.054400
      6 CAL         -2.7880     1.0070     0.0290 c3         1 8JX      -0.083400
      7 CAN         -1.2820     0.9680     0.3540 c3         1 8JX       0.193800
      8 NAP         -0.7820     2.3380     0.5560 n7         1 8JX      -0.858300
      9 SAW          0.8070     2.5920     1.0020 sy         1 8JX       1.149600
     10 OAC          1.3050     3.5560     0.0200 o          1 8JX      -0.549500
     11 OAD          0.7700     2.9110     2.4310 o          1 8JX      -0.549500
     12 CAT          1.5980     0.9810     0.7220 ca         1 8JX      -0.339500
     13 CAV          1.9010     0.4350    -0.5620 ca         1 8JX       0.078000
     14 CAK          1.5470     1.0810    -1.7750 ca         1 8JX      -0.138000
     15 CAG          1.8600     0.5160    -3.0210 ca         1 8JX      -0.071000
     16 CAF          2.5290    -0.7100    -3.0870 ca         1 8JX      -0.134000
     17 CAJ          2.8760    -1.3780    -1.9070 ca         1 8JX      -0.063000
     18 CAU          2.5640    -0.8220    -0.6430 ca         1 8JX      -0.082000
     19 CAS          2.9100    -1.5260     0.5330 ca         1 8JX       0.212100
     20 OAQ          3.5540    -2.7480     0.4230 os         1 8JX      -0.338100
     21 CAA          3.9380    -3.5300     1.5680 c3         1 8JX       0.147900
     22 CAH          2.5900    -0.9820     1.7880 ca         1 8JX      -0.252000
     23 CAI          1.9440     0.2550     1.8800 ca         1 8JX       0.057000
     24 H2          -5.0000     0.2100    -1.4430 hc         1 8JX       0.017200
     25 H3          -5.3890     0.1020     0.3490 hc         1 8JX       0.017200
     26 H4          -3.2290    -1.0030     0.7130 hc         1 8JX       0.039700
     27 H5          -2.8560    -0.8980    -1.0060 hc         1 8JX       0.039700
     28 H6          -2.9470     1.6110    -0.8730 hc         1 8JX       0.038200
     29 H7          -3.3190     1.5050     0.8500 hc         1 8JX       0.038200
     30 H8          -1.1320     0.3670     1.2620 h1         1 8JX       0.049200
     31 H9          -0.7630     0.4680    -0.4730 h1         1 8JX       0.049200
     32 H10         -0.8260     2.8590    -0.3170 hn         1 8JX       0.476000
     33 H11          1.0080     2.0180    -1.7900 ha         1 8JX       0.125000
     34 H12          1.5780     1.0310    -3.9370 ha         1 8JX       0.115000
     35 H13          2.7710    -1.1470    -4.0530 ha         1 8JX       0.113000
     36 H14          3.3870    -2.3340    -1.9850 ha         1 8JX       0.123000
     37 H15          4.6380    -2.9750     2.2040 h1         1 8JX       0.046033
     38 H16          3.0590    -3.8050     2.1650 h1         1 8JX       0.046033
     39 H17          4.4320    -4.4550     1.2470 h1         1 8JX       0.046033
     40 H18          2.8380    -1.4980     2.7100 ha         1 8JX       0.122000
     41 H19          1.7200     0.6450     2.8720 ha         1 8JX       0.144000
@<TRIPOS>BOND
     1     1     2 1   
     2     2     3 1   
     3     2     4 1   
     4     4     5 1   
     5     4    24 1   
     6     4    25 1   
     7     5     6 1   
     8     5    26 1   
     9     5    27 1   
    10     6     7 1   
    11     6    28 1   
    12     6    29 1   
    13     7     8 1   
    14     7    30 1   
    15     7    31 1   
    16     8     9 1   
    17     8    32 1   
    18     9    10 2   
    19     9    11 2   
    20     9    12 1   
    21    12    13 ar  
    22    12    23 ar  
    23    13    14 ar  
    24    13    18 ar  
    25    14    15 ar  
    26    14    33 1   
    27    15    16 ar  
    28    15    34 1   
    29    16    17 ar  
    30    16    35 1   
    31    17    18 ar  
    32    17    36 1   
    33    18    19 ar  
    34    19    20 1   
    35    19    22 ar  
    36    20    21 1   
    37    21    37 1   
    38    21    38 1   
    39    21    39 1   
    40    22    23 ar  
    41    22    40 1   
    42    23    41 1   
@<TRIPOS>SUBSTRUCTURE
     1 8JX         1 TEMP              0 ****  ****    0 ROOT
