@<TRIPOS>MOLECULE
8JY
   88    88     1     0     0
SMALL
No Charge or Current Charge


@<TRIPOS>ATOM
      1 C20        149.8600   163.5730   188.5180 c3         1 8JY       0.165600
      2 C21        149.1650   162.0650   191.7990 c          1 8JY       0.599100
      3 C22        148.8510   162.7530   193.1320 c3         1 8JY      -0.133400
      4 C17        147.7560   162.1130   188.9010 c3         1 8JY       0.224600
      5 C18        149.1910   162.4680   189.3900 c3         1 8JY       0.109300
      6 C01        147.0720   159.7150   185.5590 ca         1 8JY       0.062100
      7 C02        146.9460   160.2770   184.2720 ca         1 8JY       0.085100
      8 C03        145.9930   161.2920   184.0290 ca         1 8JY       0.086100
      9 C04        145.1750   161.7610   185.0750 ca         1 8JY       0.015100
     10 C05        145.2770   161.1830   186.3660 ca         1 8JY       0.047100
     11 C06        146.2090   160.1470   186.6030 ca         1 8JY       0.129100
     12 C23        147.4080   162.4630   193.6190 c3         1 8JY      -0.061400
     13 C24        146.3000   162.9270   192.6400 c3         1 8JY      -0.079400
     14 C25        144.8610   162.6540   193.1360 c3         1 8JY      -0.075400
     15 C26        144.4250   163.5330   194.3250 c3         1 8JY      -0.090100
     16 C29        148.4150   165.4680   189.1430 c3         1 8JY       0.172600
     17 C30        147.4280   166.4470   188.4750 c3         1 8JY      -0.101400
     18 C31        146.6660   167.3610   189.4650 c3         1 8JY      -0.068400
     19 C32        145.6630   166.6070   190.3760 c3         1 8JY      -0.081400
     20 C33        144.9010   167.5090   191.3720 c3         1 8JY      -0.073400
     21 C34        143.8840   168.4650   190.7150 c3         1 8JY      -0.091100
     22 C35        144.4250   162.8830   187.8970 c          1 8JY       0.610100
     23 C36        143.7550   162.9730   189.2680 c3         1 8JY      -0.133400
     24 C38        142.2670   163.3810   189.1410 c3         1 8JY      -0.066400
     25 C39        141.5430   163.5810   190.4930 c3         1 8JY      -0.081400
     26 C40        141.9840   164.8420   191.2740 c3         1 8JY      -0.078400
     27 C41        141.1860   165.0450   192.5810 c3         1 8JY      -0.077400
     28 C42        141.6130   166.2990   193.3670 c3         1 8JY      -0.088100
     29 O07        146.2180   159.5630   187.8550 os         1 8JY      -0.456500
     30 O10        145.8580   161.8640   182.7920 oh         1 8JY      -0.524100
     31 O11        144.3000   162.7890   184.8180 oh         1 8JY      -0.572100
     32 O12        144.4850   161.5990   187.4240 os         1 8JY      -0.308200
     33 O14        147.2730   160.9310   189.5560 os         1 8JY      -0.621400
     34 O15        147.2640   158.3940   189.8800 o          1 8JY      -0.787000
     35 O16        148.7530   159.3620   188.1440 o          1 8JY      -0.787000
     36 O19        149.1190   162.9550   190.7540 os         1 8JY      -0.451100
     37 O27        149.4540   160.8810   191.7000 o          1 8JY      -0.470000
     38 O28        148.9140   164.5950   188.1110 os         1 8JY      -0.463000
     39 O37        144.8460   163.8580   187.2900 o          1 8JY      -0.520000
     40 P13        147.4590   159.4820   188.8790 p5         1 8JY       1.421800
     41 H1         150.7050   164.0150   189.0630 h1         1 8JY       0.044200
     42 H2         150.2710   163.0910   187.6220 h1         1 8JY       0.044200
     43 H3         149.5510   162.3890   193.8930 hc         1 8JY       0.054200
     44 H4         148.9530   163.8380   193.0170 hc         1 8JY       0.054200
     45 H5         147.7810   161.9790   187.8110 h1         1 8JY       0.050200
     46 H6         147.0810   162.9530   189.1060 h1         1 8JY       0.050200
     47 H7         149.8330   161.5800   189.3220 h1         1 8JY       0.078700
     48 H8         147.3010   161.3860   193.7980 hc         1 8JY       0.044700
     49 H9         147.2690   162.9580   194.5880 hc         1 8JY       0.044700
     50 H10        146.4170   163.9980   192.4370 hc         1 8JY       0.055700
     51 H11        146.4290   162.4110   191.6820 hc         1 8JY       0.055700
     52 H12        144.1660   162.8230   192.3060 hc         1 8JY       0.050700
     53 H13        144.7620   161.5960   193.4100 hc         1 8JY       0.050700
     54 H14        143.3730   163.3460   194.5700 hc         1 8JY       0.020033
     55 H15        145.0230   163.3180   195.2180 hc         1 8JY       0.020033
     56 H16        144.5350   164.5970   194.0810 hc         1 8JY       0.020033
     57 H17        147.8860   164.9000   189.9150 h1         1 8JY       0.028700
     58 H18        149.2320   166.0260   189.6170 h1         1 8JY       0.028700
     59 H19        147.9850   167.0750   187.7700 hc         1 8JY       0.061700
     60 H20        146.7000   165.8790   187.8830 hc         1 8JY       0.061700
     61 H21        147.3900   167.9030   190.0870 hc         1 8JY       0.031200
     62 H22        144.9400   166.0680   189.7520 hc         1 8JY       0.044200
     63 H23        144.3650   166.8670   192.0800 hc         1 8JY       0.030700
     64 H24        145.6180   168.0910   191.9630 hc         1 8JY       0.030700
     65 H25        143.3270   169.0120   191.4850 hc         1 8JY       0.030367
     66 H26        144.3870   169.2000   190.0760 hc         1 8JY       0.030367
     67 H27        143.1640   167.9070   190.1050 hc         1 8JY       0.030367
     68 H28        143.7970   161.9920   189.7560 hc         1 8JY       0.072200
     69 H29        142.1880   164.3050   188.5530 hc         1 8JY       0.062700
     70 H30        140.4650   163.6510   190.2980 hc         1 8JY       0.042200
     71 H31        143.0500   164.7780   191.5160 hc         1 8JY       0.036200
     72 H32        140.1180   165.1220   192.3440 hc         1 8JY       0.036200
     73 H33        141.3070   164.1630   193.2220 hc         1 8JY       0.036200
     74 H34        140.9920   166.4170   194.2630 hc         1 8JY       0.027367
     75 H35        142.6590   166.2210   193.6860 hc         1 8JY       0.027367
     76 H36        141.5030   167.2000   192.7510 hc         1 8JY       0.027367
     77 H37        148.4210   158.9020   186.6860 ho         1 8JY       0.551000
     78 H38        148.3280   159.1220   183.7000 ho         1 8JY       0.477000
     79 H39        145.1450   162.5350   182.8860 ho         1 8JY       0.462000
     80 H40        144.2400   163.3350   185.6400 ho         1 8JY       0.471000
     81 H42        146.2020   165.8510   190.9570 hc         1 8JY       0.044200
     82 H43        146.1240   168.1150   188.8820 hc         1 8JY       0.031200
     83 H45        141.8540   165.7240   190.6350 hc         1 8JY       0.036200
     84 H44        141.6880   162.6910   191.1190 hc         1 8JY       0.042200
     85 H46        141.7380   162.6050   188.5710 hc         1 8JY       0.062700
     86 H47        144.2920   163.7180   189.8640 hc         1 8JY       0.072200
     87 O08        148.0460   158.7610   185.7600 oh         1 8JY      -0.621100
     88 O09        147.7750   159.8210   183.2810 oh         1 8JY      -0.530100
@<TRIPOS>BOND
     1     1     5 1   
     2     1    38 1   
     3     1    41 1   
     4     1    42 1   
     5     2     3 1   
     6     2    36 1   
     7     2    37 2   
     8     3    12 1   
     9     3    43 1   
    10     3    44 1   
    11     4     5 1   
    12     4    33 1   
    13     4    45 1   
    14     4    46 1   
    15     5    36 1   
    16     5    47 1   
    17     6     7 ar  
    18     6    11 ar  
    19     6    87 1   
    20     7     8 ar  
    21     7    88 1   
    22     8     9 ar  
    23     8    30 1   
    24     9    10 ar  
    25     9    31 1   
    26    10    11 ar  
    27    10    32 1   
    28    11    29 1   
    29    12    13 1   
    30    12    48 1   
    31    12    49 1   
    32    13    14 1   
    33    13    50 1   
    34    13    51 1   
    35    14    15 1   
    36    14    52 1   
    37    14    53 1   
    38    15    54 1   
    39    15    55 1   
    40    15    56 1   
    41    16    17 1   
    42    16    38 1   
    43    16    57 1   
    44    16    58 1   
    45    17    18 1   
    46    17    59 1   
    47    17    60 1   
    48    18    19 1   
    49    18    61 1   
    50    18    82 1   
    51    19    20 1   
    52    19    62 1   
    53    19    81 1   
    54    20    21 1   
    55    20    63 1   
    56    20    64 1   
    57    21    65 1   
    58    21    66 1   
    59    21    67 1   
    60    22    23 1   
    61    22    32 1   
    62    22    39 2   
    63    23    24 1   
    64    23    68 1   
    65    23    86 1   
    66    24    25 1   
    67    24    69 1   
    68    24    85 1   
    69    25    26 1   
    70    25    70 1   
    71    25    84 1   
    72    26    27 1   
    73    26    71 1   
    74    26    83 1   
    75    27    28 1   
    76    27    72 1   
    77    27    73 1   
    78    28    74 1   
    79    28    75 1   
    80    28    76 1   
    81    29    40 1   
    82    30    79 1   
    83    31    80 1   
    84    33    40 1   
    85    34    40 1   
    86    35    40 1   
    87    77    87 1   
    88    78    88 1   
@<TRIPOS>SUBSTRUCTURE
     1 8JY         1 TEMP              0 ****  ****    0 ROOT
