@<TRIPOS>MOLECULE
8JY
   88    88     1     0     0
SMALL
abcg2


@<TRIPOS>ATOM
      1 C20        150.2220   163.9060   188.7430 c3         1 8JY       0.165600
      2 C21        148.7800   162.4810   191.6300 c          1 8JY       0.599100
      3 C22        148.1840   163.1620   192.8330 c3         1 8JY      -0.133400
      4 C17        148.2390   162.3640   188.3870 c3         1 8JY       0.224600
      5 C18        149.3530   162.7990   189.3300 c3         1 8JY       0.109300
      6 C01        146.4800   159.6220   185.7300 ca         1 8JY       0.062100
      7 C02        146.3800   160.0180   184.3960 ca         1 8JY       0.085100
      8 C03        145.5850   161.1040   184.0430 ca         1 8JY       0.086100
      9 C04        144.9030   161.8180   185.0280 ca         1 8JY       0.015100
     10 C05        145.0180   161.4300   186.3560 ca         1 8JY       0.047100
     11 C06        145.7740   160.3190   186.7120 ca         1 8JY       0.129100
     12 C23        146.9720   162.4140   193.3890 c3         1 8JY      -0.061400
     13 C24        145.7830   162.3990   192.4340 c3         1 8JY      -0.079400
     14 C25        144.5530   161.7010   193.0060 c3         1 8JY      -0.075400
     15 C26        143.9110   162.4380   194.1730 c3         1 8JY      -0.090100
     16 C29        149.0310   165.9730   189.1320 c3         1 8JY       0.172600
     17 C30        147.5200   166.0910   188.9980 c3         1 8JY      -0.101400
     18 C31        146.8750   167.0470   189.9990 c3         1 8JY      -0.068400
     19 C32        146.8430   166.5000   191.4220 c3         1 8JY      -0.081400
     20 C33        146.0350   167.3410   192.4060 c3         1 8JY      -0.073400
     21 C34        144.5310   167.2890   192.1640 c3         1 8JY      -0.091100
     22 C35        144.6680   163.3570   187.6430 c          1 8JY       0.610100
     23 C36        144.0770   163.8610   188.9270 c3         1 8JY      -0.133400
     24 C38        142.9260   163.0700   189.5330 c3         1 8JY      -0.066400
     25 C39        142.3710   163.7350   190.7890 c3         1 8JY      -0.081400
     26 C40        141.6750   165.0710   190.5530 c3         1 8JY      -0.078400
     27 C41        141.0660   165.6470   191.8250 c3         1 8JY      -0.077400
     28 C42        140.4480   167.0210   191.6170 c3         1 8JY      -0.088100
     29 O07        145.7460   159.8850   188.0020 os         1 8JY      -0.456500
     30 O10        145.5120   161.4470   182.7400 oh         1 8JY      -0.524100
     31 O11        144.1170   162.8570   184.6240 oh         1 8JY      -0.572100
     32 O12        144.3520   162.0830   187.3720 os         1 8JY      -0.308200
     33 O14        147.2650   161.6050   189.0740 os         1 8JY      -0.621400
     34 O15        146.6310   159.4800   190.3000 o          1 8JY      -0.787000
     35 O16        148.2440   159.3860   188.2290 o          1 8JY      -0.787000
     36 O19        148.7820   163.2680   190.5560 os         1 8JY      -0.451100
     37 O27        149.2250   161.3610   191.6480 o          1 8JY      -0.470000
     38 O28        149.5380   165.0110   188.2160 os         1 8JY      -0.463000
     39 O37        145.3720   164.0190   186.9220 o          1 8JY      -0.520000
     40 P13        147.0820   159.9940   188.9830 p5         1 8JY       1.421800
     41 H1         150.9600   164.2060   189.4980 h1         1 8JY       0.044200
     42 H2         150.7830   163.4680   187.9120 h1         1 8JY       0.044200
     43 H3         148.9660   163.2020   193.5970 hc         1 8JY       0.054200
     44 H4         147.9130   164.1900   192.5990 hc         1 8JY       0.054200
     45 H5         148.6840   161.8120   187.5550 h1         1 8JY       0.050200
     46 H6         147.7310   163.2320   187.9700 h1         1 8JY       0.050200
     47 H7         150.0140   161.9520   189.5350 h1         1 8JY       0.078700
     48 H8         147.2560   161.3880   193.6400 hc         1 8JY       0.044700
     49 H9         146.6950   162.8950   194.3290 hc         1 8JY       0.044700
     50 H10        145.5210   163.4280   192.1610 hc         1 8JY       0.055700
     51 H11        146.0660   161.9000   191.5060 hc         1 8JY       0.055700
     52 H12        143.8130   161.5840   192.2090 hc         1 8JY       0.050700
     53 H13        144.8260   160.6860   193.3120 hc         1 8JY       0.050700
     54 H14        143.0000   161.9380   194.5030 hc         1 8JY       0.020033
     55 H15        144.5760   162.5050   195.0350 hc         1 8JY       0.020033
     56 H16        143.6420   163.4580   193.8870 hc         1 8JY       0.020033
     57 H17        149.3190   165.7310   190.1570 h1         1 8JY       0.028700
     58 H18        149.4890   166.9410   188.8980 h1         1 8JY       0.028700
     59 H19        147.2860   166.4150   187.9800 hc         1 8JY       0.061700
     60 H20        147.0680   165.1030   189.1200 hc         1 8JY       0.061700
     61 H21        147.3910   168.0130   189.9870 hc         1 8JY       0.031200
     62 H22        146.4270   165.4860   191.4010 hc         1 8JY       0.044200
     63 H23        146.2390   166.9880   193.4210 hc         1 8JY       0.030700
     64 H24        146.3810   168.3790   192.3720 hc         1 8JY       0.030700
     65 H25        143.9860   167.8530   192.9210 hc         1 8JY       0.030367
     66 H26        144.2550   167.6990   191.1920 hc         1 8JY       0.030367
     67 H27        144.1700   166.2580   192.1990 hc         1 8JY       0.030367
     68 H28        144.9060   163.9060   189.6440 hc         1 8JY       0.072200
     69 H29        142.1220   162.9510   188.8010 hc         1 8JY       0.062700
     70 H30        141.6620   163.0460   191.2580 hc         1 8JY       0.042200
     71 H31        142.3820   165.8000   190.1430 hc         1 8JY       0.036200
     72 H32        140.3110   164.9560   192.2110 hc         1 8JY       0.036200
     73 H33        141.8390   165.7120   192.5980 hc         1 8JY       0.036200
     74 H34        140.0090   167.4070   192.5370 hc         1 8JY       0.027367
     75 H35        141.1970   167.7410   191.2810 hc         1 8JY       0.027367
     76 H36        139.6590   166.9910   190.8630 hc         1 8JY       0.027367
     77 H37        147.7380   158.7350   186.8640 ho         1 8JY       0.551000
     78 H38        147.6060   158.6910   183.8260 ho         1 8JY       0.477000
     79 H39        144.9550   162.2320   182.6560 ho         1 8JY       0.462000
     80 H40        144.4700   163.6820   184.9870 ho         1 8JY       0.471000
     81 H42        147.8650   166.3990   191.7990 hc         1 8JY       0.044200
     82 H43        145.8550   167.2480   189.6630 hc         1 8JY       0.031200
     83 H45        140.8930   164.9470   189.7960 hc         1 8JY       0.036200
     84 H44        143.1780   163.8760   191.5160 hc         1 8JY       0.042200
     85 H46        143.2690   162.0650   189.7880 hc         1 8JY       0.062700
     86 H47        143.7960   164.9000   188.7460 hc         1 8JY       0.072200
     87 O08        147.2540   158.5530   186.0060 oh         1 8JY      -0.621100
     88 O09        147.0470   159.3660   183.4200 oh         1 8JY      -0.530100
@<TRIPOS>BOND
     1     1     5 1   
     2     1    38 1   
     3     1    41 1   
     4     1    42 1   
     5     2     3 1   
     6     2    36 1   
     7     2    37 2   
     8     3    12 1   
     9     3    43 1   
    10     3    44 1   
    11     4     5 1   
    12     4    33 1   
    13     4    45 1   
    14     4    46 1   
    15     5    36 1   
    16     5    47 1   
    17     6     7 ar  
    18     6    11 ar  
    19     6    87 1   
    20     7     8 ar  
    21     7    88 1   
    22     8     9 ar  
    23     8    30 1   
    24     9    10 ar  
    25     9    31 1   
    26    10    11 ar  
    27    10    32 1   
    28    11    29 1   
    29    12    13 1   
    30    12    48 1   
    31    12    49 1   
    32    13    14 1   
    33    13    50 1   
    34    13    51 1   
    35    14    15 1   
    36    14    52 1   
    37    14    53 1   
    38    15    54 1   
    39    15    55 1   
    40    15    56 1   
    41    16    17 1   
    42    16    38 1   
    43    16    57 1   
    44    16    58 1   
    45    17    18 1   
    46    17    59 1   
    47    17    60 1   
    48    18    19 1   
    49    18    61 1   
    50    18    82 1   
    51    19    20 1   
    52    19    62 1   
    53    19    81 1   
    54    20    21 1   
    55    20    63 1   
    56    20    64 1   
    57    21    65 1   
    58    21    66 1   
    59    21    67 1   
    60    22    23 1   
    61    22    32 1   
    62    22    39 2   
    63    23    24 1   
    64    23    68 1   
    65    23    86 1   
    66    24    25 1   
    67    24    69 1   
    68    24    85 1   
    69    25    26 1   
    70    25    70 1   
    71    25    84 1   
    72    26    27 1   
    73    26    71 1   
    74    26    83 1   
    75    27    28 1   
    76    27    72 1   
    77    27    73 1   
    78    28    74 1   
    79    28    75 1   
    80    28    76 1   
    81    29    40 1   
    82    30    79 1   
    83    31    80 1   
    84    33    40 1   
    85    34    40 1   
    86    35    40 1   
    87    77    87 1   
    88    78    88 1   
@<TRIPOS>SUBSTRUCTURE
     1 8JY         1 TEMP              0 ****  ****    0 ROOT
