@<TRIPOS>MOLECULE
8JZ
   20    19     1     0     0
SMALL
No Charge or Current Charge


@<TRIPOS>ATOM
      1 OAC          2.4030    -1.3600     0.0250 o          1 8JZ      -0.488000
      2 CAH          2.1760    -0.1590     0.0030 c          1 8JZ       0.595100
      3 CAB          3.2620     0.9070    -0.0170 c3         1 8JZ      -0.157100
      4 OAG          0.9240     0.3970    -0.0080 os         1 8JZ      -0.454100
      5 CAF         -0.2080    -0.4890     0.0070 c3         1 8JZ       0.165600
      6 CAE         -1.4800     0.3810    -0.0090 c3         1 8JZ      -0.084400
      7 CAD         -2.7810    -0.4510     0.0050 c3         1 8JZ      -0.074400
      8 CAA         -4.0530     0.4180    -0.0120 c3         1 8JZ      -0.088100
      9 HAB          4.2710     0.4810    -0.0080 hc         1 8JZ       0.069033
     10 HABA         3.1010     1.5600    -0.8810 hc         1 8JZ       0.069033
     11 HABB         3.1000     1.5910     0.8240 hc         1 8JZ       0.069033
     12 HAF         -0.2010    -1.1470    -0.8720 h1         1 8JZ       0.047200
     13 HAFA        -0.2020    -1.1140     0.9110 h1         1 8JZ       0.047200
     14 HAE         -1.4670     1.0490     0.8610 hc         1 8JZ       0.052200
     15 HAEA        -1.4660     1.0160    -0.9040 hc         1 8JZ       0.052200
     16 HAD         -2.7940    -1.1200    -0.8640 hc         1 8JZ       0.039700
     17 HADA        -2.7950    -1.0880     0.8990 hc         1 8JZ       0.039700
     18 HAA         -4.0860     1.0410    -0.9130 hc         1 8JZ       0.033700
     19 HAAA        -4.9490    -0.2160    -0.0000 hc         1 8JZ       0.033700
     20 HAAB        -4.0870     1.0740     0.8660 hc         1 8JZ       0.033700
@<TRIPOS>BOND
     1     1     2 2   
     2     2     3 1   
     3     2     4 1   
     4     3     9 1   
     5     3    10 1   
     6     3    11 1   
     7     4     5 1   
     8     5     6 1   
     9     5    12 1   
    10     5    13 1   
    11     6     7 1   
    12     6    14 1   
    13     6    15 1   
    14     7     8 1   
    15     7    16 1   
    16     7    17 1   
    17     8    18 1   
    18     8    19 1   
    19     8    20 1   
@<TRIPOS>SUBSTRUCTURE
     1 8JZ         1 TEMP              0 ****  ****    0 ROOT
