@<TRIPOS>MOLECULE
8JZ
   20    19     1     0     0
SMALL
bcc


@<TRIPOS>ATOM
      1 OAC          2.3050    -1.3310    -0.0220 o          1 8JZ      -0.537000
      2 CAH          2.1190    -0.1410    -0.0060 c          1 8JZ       0.644100
      3 CAB          3.1930     0.9060    -0.0280 c3         1 8JZ      -0.157100
      4 OAG          0.9090     0.4090     0.0310 os         1 8JZ      -0.430900
      5 CAF         -0.2240    -0.4610     0.0330 c3         1 8JZ       0.142400
      6 CAE         -1.4720     0.3960     0.0120 c3         1 8JZ      -0.084400
      7 CAD         -2.7390    -0.4530     0.0070 c3         1 8JZ      -0.074400
      8 CAA         -4.0010     0.3960    -0.0270 c3         1 8JZ      -0.088100
      9 HAB          4.1750     0.4430    -0.0250 hc         1 8JZ       0.069033
     10 HABA         3.0980     1.5290    -0.9170 hc         1 8JZ       0.069033
     11 HABB         3.1060     1.5620     0.8370 hc         1 8JZ       0.069033
     12 HAF         -0.1930    -1.1190    -0.8410 h1         1 8JZ       0.047200
     13 HAFA        -0.2060    -1.0970     0.9230 h1         1 8JZ       0.047200
     14 HAE         -1.4790     1.0600     0.8810 hc         1 8JZ       0.052200
     15 HAEA        -1.4600     1.0390    -0.8730 hc         1 8JZ       0.052200
     16 HAD         -2.7270    -1.1260    -0.8560 hc         1 8JZ       0.039700
     17 HADA        -2.7530    -1.0960     0.8920 hc         1 8JZ       0.039700
     18 HAA         -4.0310     1.0220    -0.9200 hc         1 8JZ       0.033700
     19 HAAA        -4.8990    -0.2220    -0.0280 hc         1 8JZ       0.033700
     20 HAAB        -4.0560     1.0570     0.8390 hc         1 8JZ       0.033700
@<TRIPOS>BOND
     1     1     2 2   
     2     2     3 1   
     3     2     4 1   
     4     3     9 1   
     5     3    10 1   
     6     3    11 1   
     7     4     5 1   
     8     5     6 1   
     9     5    12 1   
    10     5    13 1   
    11     6     7 1   
    12     6    14 1   
    13     6    15 1   
    14     7     8 1   
    15     7    16 1   
    16     7    17 1   
    17     8    18 1   
    18     8    19 1   
    19     8    20 1   
@<TRIPOS>SUBSTRUCTURE
     1 8JZ         1 TEMP              0 ****  ****    0 ROOT
