@<TRIPOS>MOLECULE
8K0
   37    38     1     0     0
SMALL
bcc


@<TRIPOS>ATOM
      1 OAA          5.9120    -2.8560    -0.5210 o          1 8K0      -0.845300
      2 CAQ          6.3260    -2.1340     0.4070 c          1 8K0       0.928600
      3 OAD          7.3370    -2.3420     1.1100 o          1 8K0      -0.845300
      4 CAO          5.5330    -0.8560     0.7350 c3         1 8K0      -0.206400
      5 CAM          4.3010    -0.6010    -0.1180 c3         1 8K0      -0.054400
      6 CAL          3.5910     0.6920     0.2690 c3         1 8K0      -0.086400
      7 CAN          2.3400     0.9180    -0.5620 c3         1 8K0       0.192800
      8 NAP          1.6980     2.1700    -0.1560 n7         1 8K0      -0.805100
      9 SAV          0.3210     2.6380    -0.9170 sy         1 8K0       1.284200
     10 OAB         -0.1450     3.8440    -0.2520 o          1 8K0      -0.614300
     11 OAC          0.6140     2.6790    -2.3390 o          1 8K0      -0.614300
     12 CAS         -0.8660     1.3290    -0.6670 ca         1 8K0      -0.274500
     13 CAU         -1.3560     0.9890     0.6280 ca         1 8K0       0.045000
     14 CAK         -1.0000     1.6870     1.8070 ca         1 8K0      -0.144000
     15 CAG         -1.4720     1.3000     3.0310 ca         1 8K0      -0.098000
     16 CAF         -2.3330     0.1980     3.1450 ca         1 8K0      -0.128000
     17 CAJ         -2.7140    -0.4920     2.0280 ca         1 8K0      -0.104000
     18 CAT         -2.2440    -0.1230     0.7460 ca         1 8K0      -0.036000
     19 CAR         -2.6180    -0.8130    -0.4410 ca         1 8K0       0.041100
     20 BRAE        -3.7990    -2.2800    -0.3680 br         1 8K0      -0.095100
     21 CAH         -2.1440    -0.4480    -1.6680 ca         1 8K0      -0.126000
     22 CAI         -1.2500     0.6290    -1.7760 ca         1 8K0      -0.015000
     23 H2           5.2450    -0.8930     1.7920 hc         1 8K0       0.016700
     24 H3           6.2160    -0.0020     0.6590 hc         1 8K0       0.016700
     25 H4           4.5830    -0.5560    -1.1730 hc         1 8K0       0.042700
     26 H5           3.6060    -1.4400    -0.0250 hc         1 8K0       0.042700
     27 H6           3.3190     0.6560     1.3290 hc         1 8K0       0.037200
     28 H7           4.2670     1.5430     0.1470 hc         1 8K0       0.037200
     29 H8           2.6030     0.9920    -1.6170 h1         1 8K0       0.053700
     30 H9           1.6630     0.0630    -0.4480 h1         1 8K0       0.053700
     31 H10          1.6560     2.3080     0.8480 hn         1 8K0       0.424800
     32 H11         -0.3730     2.5630     1.7630 ha         1 8K0       0.144000
     33 H12         -1.1850     1.8550     3.9140 ha         1 8K0       0.136000
     34 H13         -2.7020    -0.1030     4.1170 ha         1 8K0       0.134000
     35 H14         -3.3850    -1.3310     2.1390 ha         1 8K0       0.143000
     36 H15         -2.4330    -0.9780    -2.5640 ha         1 8K0       0.152000
     37 H16         -0.8740     0.8860    -2.7550 ha         1 8K0       0.168000
@<TRIPOS>BOND
     1     1     2 1   
     2     2     3 1   
     3     2     4 1   
     4     4     5 1   
     5     4    23 1   
     6     4    24 1   
     7     5     6 1   
     8     5    25 1   
     9     5    26 1   
    10     6     7 1   
    11     6    27 1   
    12     6    28 1   
    13     7     8 1   
    14     7    29 1   
    15     7    30 1   
    16     8     9 1   
    17     8    31 1   
    18     9    10 2   
    19     9    11 2   
    20     9    12 1   
    21    12    13 ar  
    22    12    22 ar  
    23    13    14 ar  
    24    13    18 ar  
    25    14    15 ar  
    26    14    32 1   
    27    15    16 ar  
    28    15    33 1   
    29    16    17 ar  
    30    16    34 1   
    31    17    18 ar  
    32    17    35 1   
    33    18    19 ar  
    34    19    20 1   
    35    19    21 ar  
    36    21    22 ar  
    37    21    36 1   
    38    22    37 1   
@<TRIPOS>SUBSTRUCTURE
     1 8K0         1 TEMP              0 ****  ****    0 ROOT
