@<TRIPOS>MOLECULE
8K0
   37    38     1     0     0
SMALL
No Charge or Current Charge


@<TRIPOS>ATOM
      1 OAA          6.1470    -2.8950    -0.1930 o          1 8K0      -0.740000
      2 CAQ          5.8300    -2.2310     0.7820 c          1 8K0       0.718000
      3 OAD          5.7190    -2.6920     1.9080 o          1 8K0      -0.740000
      4 CAO          5.4900    -0.7450     0.5690 c3         1 8K0      -0.206400
      5 CAM          3.9850    -0.5800     0.2470 c3         1 8K0      -0.054400
      6 CAL          3.5690     0.8910     0.0180 c3         1 8K0      -0.086400
      7 CAN          2.0700     1.0460    -0.3020 c3         1 8K0       0.192800
      8 NAP          1.7540     2.4680    -0.5140 n7         1 8K0      -0.860300
      9 SAV          0.2070     2.9280    -0.9530 sy         1 8K0       1.142600
     10 OAB         -0.1650     3.9290     0.0470 o          1 8K0      -0.543500
     11 OAC          0.2870     3.2680    -2.3760 o          1 8K0      -0.543500
     12 CAS         -0.7850     1.4200    -0.7050 ca         1 8K0      -0.274500
     13 CAU         -1.1670     0.8940     0.5700 ca         1 8K0       0.045000
     14 CAK         -0.7450     1.4750     1.7940 ca         1 8K0      -0.126000
     15 CAG         -1.1360     0.9370     3.0290 ca         1 8K0      -0.080000
     16 CAF         -1.9530    -0.1950     3.0750 ca         1 8K0      -0.110000
     17 CAJ         -2.3730    -0.8000     1.8840 ca         1 8K0      -0.086000
     18 CAT         -1.9850    -0.2740     0.6280 ca         1 8K0      -0.036000
     19 CAR         -2.4000    -0.9040    -0.5700 ca         1 8K0       0.041100
     20 BrAE        -3.4990    -2.4840    -0.5920 br         1 8K0      -0.095100
     21 CAH         -2.0050    -0.3880    -1.8080 ca         1 8K0      -0.108000
     22 CAI         -1.2090     0.7590    -1.8780 ca         1 8K0       0.003000
     23 H2           5.6640    -0.1760     1.4920 hc         1 8K0       0.016700
     24 H3           6.0290    -0.3490    -0.3010 hc         1 8K0       0.016700
     25 H4           3.7420    -1.1660    -0.6490 hc         1 8K0       0.042700
     26 H5           3.3920    -0.9980     1.0700 hc         1 8K0       0.042700
     27 H6           3.8100     1.4760     0.9150 hc         1 8K0       0.037200
     28 H7           4.1570     1.3080    -0.8080 hc         1 8K0       0.037200
     29 H8           1.8390     0.4610    -1.2030 h1         1 8K0       0.053700
     30 H9           1.4930     0.6240     0.5320 h1         1 8K0       0.053700
     31 H10          1.8750     2.9890     0.3520 hn         1 8K0       0.480000
     32 H11         -0.0930     2.3370     1.8270 ha         1 8K0       0.126000
     33 H12         -0.7990     1.4010     3.9550 ha         1 8K0       0.118000
     34 H13         -2.2550    -0.6110     4.0340 ha         1 8K0       0.116000
     35 H14         -2.9990    -1.6840     1.9590 ha         1 8K0       0.125000
     36 H15         -2.3220    -0.8790    -2.7250 ha         1 8K0       0.134000
     37 H16         -0.9310     1.1310    -2.8620 ha         1 8K0       0.150000
@<TRIPOS>BOND
     1     1     2 1   
     2     2     3 1   
     3     2     4 1   
     4     4     5 1   
     5     4    23 1   
     6     4    24 1   
     7     5     6 1   
     8     5    25 1   
     9     5    26 1   
    10     6     7 1   
    11     6    27 1   
    12     6    28 1   
    13     7     8 1   
    14     7    29 1   
    15     7    30 1   
    16     8     9 1   
    17     8    31 1   
    18     9    10 2   
    19     9    11 2   
    20     9    12 1   
    21    12    13 ar  
    22    12    22 ar  
    23    13    14 ar  
    24    13    18 ar  
    25    14    15 ar  
    26    14    32 1   
    27    15    16 ar  
    28    15    33 1   
    29    16    17 ar  
    30    16    34 1   
    31    17    18 ar  
    32    17    35 1   
    33    18    19 ar  
    34    19    20 1   
    35    19    21 ar  
    36    21    22 ar  
    37    21    36 1   
    38    22    37 1   
@<TRIPOS>SUBSTRUCTURE
     1 8K0         1 TEMP              0 ****  ****    0 ROOT
