@<TRIPOS>MOLECULE
8K2
   14    14     1     0     0
SMALL
No Charge or Current Charge


@<TRIPOS>ATOM
      1 C2          -1.3980     1.5040     0.1400 cc         1 8K2      -0.151000
      2 Cl          -3.6770    -0.0590     0.0750 cl         1 8K2      -0.129000
      3 C3          -1.9720     0.2620     0.0580 cd         1 8K2      -0.009000
      4 C1           0.0180     1.4730     0.1000 cc         1 8K2       0.012000
      5 S1          -0.7510    -1.0200    -0.0830 ss         1 8K2       0.387000
      6 C            0.5250     0.2000    -0.0050 cd         1 8K2      -0.454500
      7 S            2.2100    -0.2530    -0.1100 sy         1 8K2       1.179600
      8 O            2.3550    -1.6140    -0.6240 o          1 8K2      -0.541500
      9 O1           3.0000     0.8760    -0.5890 o          1 8K2      -0.541500
     10 N            2.5770    -0.3370     1.4720 n8         1 8K2      -1.014100
     11 H3          -1.9590     2.4290     0.2250 ha         1 8K2       0.151000
     12 H2           0.6210     2.3790     0.1460 ha         1 8K2       0.156000
     13 H1           1.8180     0.2030     1.8780 hn         1 8K2       0.477500
     14 H            3.3720     0.2960     1.5070 hn         1 8K2       0.477500
@<TRIPOS>BOND
     1     1     3 2   
     2     1     4 1   
     3     1    11 1   
     4     2     3 1   
     5     3     5 1   
     6     4     6 2   
     7     4    12 1   
     8     5     6 1   
     9     6     7 1   
    10     7     8 2   
    11     7     9 2   
    12     7    10 1   
    13    10    13 1   
    14    10    14 1   
@<TRIPOS>SUBSTRUCTURE
     1 8K2         1 TEMP              0 ****  ****    0 ROOT
