@<TRIPOS>MOLECULE
8K2
   14    14     1     0     0
SMALL
bcc


@<TRIPOS>ATOM
      1 C2          -1.5250     1.4840    -0.0340 cc         1 8K2      -0.169000
      2 CL          -3.5440    -0.3500     0.2500 cl         1 8K2      -0.037400
      3 C3          -1.9380     0.1970     0.1320 cd         1 8K2       0.044300
      4 C1          -0.1140     1.5730    -0.0990 cc         1 8K2      -0.006000
      5 S1          -0.6430    -0.9270     0.2120 ss         1 8K2       0.097200
      6 C            0.4850     0.3560     0.0210 cd         1 8K2      -0.309600
      7 S            2.2010     0.0350    -0.0310 sy         1 8K2       1.321200
      8 O            2.4380    -1.1490    -0.8390 o          1 8K2      -0.612300
      9 O1           2.8460     1.2850    -0.3990 o          1 8K2      -0.612300
     10 N            2.4860    -0.4190     1.5250 n8         1 8K2      -0.903700
     11 H3          -2.1950     2.3260    -0.1090 ha         1 8K2       0.169000
     12 H2           0.4240     2.5010    -0.2300 ha         1 8K2       0.174000
     13 H1           2.4600     0.3580     2.1770 hn         1 8K2       0.422300
     14 H            3.3590    -0.9310     1.6140 hn         1 8K2       0.422300
@<TRIPOS>BOND
     1     1     3 2   
     2     1     4 1   
     3     1    11 1   
     4     2     3 1   
     5     3     5 1   
     6     4     6 2   
     7     4    12 1   
     8     5     6 1   
     9     6     7 1   
    10     7     8 2   
    11     7     9 2   
    12     7    10 1   
    13    10    13 1   
    14    10    14 1   
@<TRIPOS>SUBSTRUCTURE
     1 8K2         1 TEMP              0 ****  ****    0 ROOT
