@<TRIPOS>MOLECULE
8K4
   54    58     1     0     0
SMALL
bcc


@<TRIPOS>ATOM
      1 C13         -0.1430    -1.2660     0.8000 ca         1 8K4      -0.105500
      2 C18          1.4440     1.3920     0.9460 c          1 8K4       0.683100
      3 C17         -0.3380    -1.0760    -1.5630 ca         1 8K4      -0.105500
      4 C16          0.1130    -2.3800    -1.7180 ca         1 8K4      -0.174500
      5 C15          0.4440    -3.1050    -0.5930 ca         1 8K4       0.125900
      6 C22          3.4860     0.0530     1.5090 cy         1 8K4       0.086000
      7 C23          4.0240    -0.7430     0.3090 cy         1 8K4       0.104100
      8 C24          2.9820    -0.0170    -0.5800 cy         1 8K4       0.086000
      9 C11         -0.4800    -0.4860    -0.3070 ca         1 8K4      -0.080300
     10 C12          0.4940     1.7630    -0.1690 c3         1 8K4      -0.147400
     11 C1          -1.6790     1.2390     1.1450 c6         1 8K4      -0.049200
     12 C2          -0.8580     0.9890    -0.1470 c6         1 8K4       0.029300
     13 C3          -1.7400     1.4920    -1.3240 c6         1 8K4      -0.049200
     14 C4          -2.0850     2.9790    -1.1660 c6         1 8K4      -0.070150
     15 C5          -2.8630     3.2070     0.1290 c6         1 8K4      -0.059700
     16 C6          -2.0150     2.7260     1.3070 c6         1 8K4      -0.070150
     17 C7          -2.9950     0.4520     1.0920 c6         1 8K4      -0.070150
     18 C8          -4.1670     2.4090     0.0800 c6         1 8K4      -0.068400
     19 C9          -3.8450     0.9240    -0.0880 c6         1 8K4      -0.059700
     20 C10         -3.0580     0.7090    -1.3810 c6         1 8K4      -0.070150
     21 C14          0.3230    -2.5670     0.6720 ca         1 8K4      -0.174500
     22 N19          2.5020     0.6450     0.6240 nj         1 8K4      -0.486800
     23 O20          1.2710     1.7610     2.1060 o          1 8K4      -0.616100
     24 F21          0.8900    -4.3660    -0.7290 f          1 8K4      -0.145900
     25 O25          5.3660    -0.4870     0.0470 os         1 8K4      -0.387600
     26 C26          5.8280    -1.1410    -1.1130 c3         1 8K4       0.119700
     27 H43         -0.2340    -0.8660     1.8010 ha         1 8K4       0.141000
     28 H46         -0.5730    -0.5220    -2.4610 ha         1 8K4       0.141000
     29 H45          0.2130    -2.8150    -2.7040 ha         1 8K4       0.149500
     30 H48          4.1970     0.7690     1.9290 h1         1 8K4       0.064450
     31 H49          3.8310    -1.8210     0.3780 h1         1 8K4       0.055700
     32 H51          3.4130     0.6650    -1.3180 h1         1 8K4       0.064450
     33 H50          2.2510    -0.6630    -1.0660 h1         1 8K4       0.064450
     34 H42          0.3230     2.8360    -0.0810 hc         1 8K4       0.064200
     35 H41          0.9550     1.6010    -1.1470 hc         1 8K4       0.064200
     36 H27         -1.1130     0.9230     2.0210 hc         1 8K4       0.055200
     37 H28         -1.2010     1.3730    -2.2680 hc         1 8K4       0.055200
     38 H30         -1.1870     3.6010    -1.1850 hc         1 8K4       0.043200
     39 H29         -2.6830     3.2950    -2.0270 hc         1 8K4       0.043200
     40 H31         -3.0830     4.2720     0.2440 hc         1 8K4       0.050200
     41 H32         -2.5620     2.8630     2.2440 hc         1 8K4       0.043200
     42 H33         -1.1050     3.3240     1.3960 hc         1 8K4       0.043200
     43 H35         -2.8040    -0.6220     1.0140 hc         1 8K4       0.043200
     44 H34         -3.5390     0.5990     2.0300 hc         1 8K4       0.043200
     45 H36         -4.7440     2.5670     0.9980 hc         1 8K4       0.039700
     46 H37         -4.7930     2.7590    -0.7470 hc         1 8K4       0.039700
     47 H38         -4.7720     0.3450    -0.1240 hc         1 8K4       0.050200
     48 H39         -3.6400     1.0510    -2.2420 hc         1 8K4       0.043200
     49 H40         -2.8790    -0.3580    -1.5370 hc         1 8K4       0.043200
     50 H44          0.5790    -3.1500     1.5480 ha         1 8K4       0.149500
     51 H52          6.8920    -0.9310    -1.2120 h1         1 8K4       0.033033
     52 H53          5.6910    -2.2260    -1.0520 h1         1 8K4       0.033033
     53 H54          5.3220    -0.7850    -2.0180 h1         1 8K4       0.033033
     54 H47          3.0580    -0.5410     2.3180 h1         1 8K4       0.064450
@<TRIPOS>BOND
     1     1     9 ar  
     2     1    21 ar  
     3     1    27 1   
     4     2    10 1   
     5     2    22 1   
     6     2    23 2   
     7     3     4 ar  
     8     3     9 ar  
     9     3    28 1   
    10     4     5 ar  
    11     4    29 1   
    12     5    21 ar  
    13     5    24 1   
    14     6     7 1   
    15     6    22 1   
    16     6    30 1   
    17     6    54 1   
    18     7     8 1   
    19     7    25 1   
    20     7    31 1   
    21     8    22 1   
    22     8    32 1   
    23     8    33 1   
    24     9    12 1   
    25    10    12 1   
    26    10    34 1   
    27    10    35 1   
    28    11    12 1   
    29    11    16 1   
    30    11    17 1   
    31    11    36 1   
    32    12    13 1   
    33    13    14 1   
    34    13    20 1   
    35    13    37 1   
    36    14    15 1   
    37    14    38 1   
    38    14    39 1   
    39    15    16 1   
    40    15    18 1   
    41    15    40 1   
    42    16    41 1   
    43    16    42 1   
    44    17    19 1   
    45    17    43 1   
    46    17    44 1   
    47    18    19 1   
    48    18    45 1   
    49    18    46 1   
    50    19    20 1   
    51    19    47 1   
    52    20    48 1   
    53    20    49 1   
    54    21    50 1   
    55    25    26 1   
    56    26    51 1   
    57    26    52 1   
    58    26    53 1   
@<TRIPOS>SUBSTRUCTURE
     1 8K4         1 TEMP              0 ****  ****    0 ROOT
