@<TRIPOS>MOLECULE
8K4
   54    58     1     0     0
SMALL
No Charge or Current Charge


@<TRIPOS>ATOM
      1 C13         -0.3420    -1.4610     0.1960 ca         1 8K4      -0.087500
      2 C18          1.6210     1.1840     0.6570 c          1 8K4       0.616100
      3 C17         -0.0550    -0.6200    -2.0620 ca         1 8K4      -0.087500
      4 C16          0.3510    -1.8970    -2.4850 ca         1 8K4      -0.156500
      5 C15          0.4010    -2.9550    -1.5710 ca         1 8K4       0.161000
      6 C22          3.8740     1.1960     0.4210 cy         1 8K4       0.086000
      7 C23          4.3630    -0.2670     0.6770 cy         1 8K4       0.127300
      8 C24          2.8740    -0.7080     0.4770 cy         1 8K4       0.086000
      9 C11         -0.4360    -0.3770    -0.7180 ca         1 8K4      -0.080300
     10 C12          0.5140     1.8660    -0.1670 c3         1 8K4      -0.147400
     11 C1          -1.6610     1.0900     1.1170 c6         1 8K4      -0.049200
     12 C2          -0.8430     1.0690    -0.2600 c6         1 8K4       0.029300
     13 C3          -1.7830     1.7650    -1.3330 c6         1 8K4      -0.049200
     14 C4          -2.2030     3.2180    -0.8610 c6         1 8K4      -0.070150
     15 C5          -2.9710     3.2100     0.5190 c6         1 8K4      -0.059700
     16 C6          -2.0530     2.5370     1.5750 c6         1 8K4      -0.070150
     17 C7          -2.9980     0.2740     0.9990 c6         1 8K4      -0.070150
     18 C8          -4.2740     2.3690     0.3620 c6         1 8K4      -0.068400
     19 C9          -3.9270     0.9120    -0.0690 c6         1 8K4      -0.059700
     20 C10         -3.1360     0.9500    -1.4390 c6         1 8K4      -0.070150
     21 C14          0.0610    -2.7380    -0.2310 ca         1 8K4      -0.156500
     22 N19          2.6280     0.6160    -0.1930 nj         1 8K4      -0.419800
     23 O20          1.5270     1.2450     1.8820 o          1 8K4      -0.616100
     24 F21          0.7970    -4.1800    -1.9770 f          1 8K4      -0.181000
     25 O25          5.3120    -0.7730    -0.2780 os         1 8K4      -0.434000
     26 C26          5.6210    -2.1760    -0.2090 c3         1 8K4       0.142900
     27 H43         -0.5690    -1.3350     1.2490 ha         1 8K4       0.123000
     28 H46         -0.0500     0.1800    -2.7960 ha         1 8K4       0.123000
     29 H45          0.6360    -2.0650    -3.5200 ha         1 8K4       0.131500
     30 H48          4.4870     1.7410    -0.3060 h1         1 8K4       0.064450
     31 H49          4.7380    -0.4290     1.6940 h1         1 8K4       0.055700
     32 H51          2.7480    -1.5510    -0.2110 h1         1 8K4       0.064450
     33 H50          2.3410    -0.9170     1.4120 h1         1 8K4       0.064450
     34 H42          0.3690     2.8640     0.2520 hc         1 8K4       0.064200
     35 H41          0.8860     1.9930    -1.1900 hc         1 8K4       0.064200
     36 H27         -1.0540     0.6570     1.9220 hc         1 8K4       0.055200
     37 H28         -1.3060     1.8430    -2.3180 hc         1 8K4       0.055200
     38 H30         -1.3270     3.8770    -0.8000 hc         1 8K4       0.043200
     39 H29         -2.8460     3.6750    -1.6260 hc         1 8K4       0.043200
     40 H31         -3.2170     4.2360     0.8250 hc         1 8K4       0.050200
     41 H32         -2.5780     2.4900     2.5390 hc         1 8K4       0.043200
     42 H33         -1.1650     3.1540     1.7640 hc         1 8K4       0.043200
     43 H35         -2.8130    -0.7750     0.7410 hc         1 8K4       0.043200
     44 H34         -3.5110     0.2510     1.9710 hc         1 8K4       0.043200
     45 H36         -4.8330     2.3600     1.3080 hc         1 8K4       0.039700
     46 H37         -4.9360     2.8350    -0.3820 hc         1 8K4       0.039700
     47 H38         -4.8460     0.3200    -0.1770 hc         1 8K4       0.050200
     48 H39         -3.7730     1.3960    -2.2150 hc         1 8K4       0.043200
     49 H40         -2.9370    -0.0750    -1.7800 hc         1 8K4       0.043200
     50 H44          0.1180    -3.5580     0.4800 ha         1 8K4       0.131500
     51 H52          6.3690    -2.4390    -0.9670 h1         1 8K4       0.033033
     52 H53          6.0270    -2.4370     0.7770 h1         1 8K4       0.033033
     53 H54          4.7260    -2.7860    -0.3880 h1         1 8K4       0.033033
     54 H47          3.7670     1.7950     1.3330 h1         1 8K4       0.064450
@<TRIPOS>BOND
     1     1     9 ar  
     2     1    21 ar  
     3     1    27 1   
     4     2    10 1   
     5     2    22 1   
     6     2    23 2   
     7     3     4 ar  
     8     3     9 ar  
     9     3    28 1   
    10     4     5 ar  
    11     4    29 1   
    12     5    21 ar  
    13     5    24 1   
    14     6     7 1   
    15     6    22 1   
    16     6    30 1   
    17     6    54 1   
    18     7     8 1   
    19     7    25 1   
    20     7    31 1   
    21     8    22 1   
    22     8    32 1   
    23     8    33 1   
    24     9    12 1   
    25    10    12 1   
    26    10    34 1   
    27    10    35 1   
    28    11    12 1   
    29    11    16 1   
    30    11    17 1   
    31    11    36 1   
    32    12    13 1   
    33    13    14 1   
    34    13    20 1   
    35    13    37 1   
    36    14    15 1   
    37    14    38 1   
    38    14    39 1   
    39    15    16 1   
    40    15    18 1   
    41    15    40 1   
    42    16    41 1   
    43    16    42 1   
    44    17    19 1   
    45    17    43 1   
    46    17    44 1   
    47    18    19 1   
    48    18    45 1   
    49    18    46 1   
    50    19    20 1   
    51    19    47 1   
    52    20    48 1   
    53    20    49 1   
    54    21    50 1   
    55    25    26 1   
    56    26    51 1   
    57    26    52 1   
    58    26    53 1   
@<TRIPOS>SUBSTRUCTURE
     1 8K4         1 TEMP              0 ****  ****    0 ROOT
