@<TRIPOS>MOLECULE
8K5
   22    22     1     0     0
SMALL
No Charge or Current Charge


@<TRIPOS>ATOM
      1 C4           2.3060     1.2110    -0.1100 ca         1 8K5      -0.098000
      2 C5           2.9610    -0.0200     0.0560 ca         1 8K5       0.154000
      3 C6           2.2500    -1.2210    -0.0930 ca         1 8K5      -0.098000
      4 N1          -4.2370    -0.2200    -1.2430 nv         1 8K5      -0.576700
      5 C7           0.8800    -1.1940    -0.4100 ca         1 8K5      -0.068000
      6 Cl           4.6740    -0.0560     0.4530 cl         1 8K5      -0.151000
      7 C3           0.9360     1.2410    -0.4270 ca         1 8K5      -0.068000
      8 C2           0.2170     0.0390    -0.5800 ca         1 8K5      -0.138300
      9 C1          -1.2680     0.0700    -0.9180 c3         1 8K5       0.106900
     10 S           -2.2760     0.0930     0.6310 ss         1 8K5      -0.154200
     11 C           -3.9670     0.1600     0.0510 c2         1 8K5       0.421700
     12 N           -4.9190    -0.1400     0.9930 nv         1 8K5      -0.560800
     13 H7           2.8590     2.1390     0.0080 ha         1 8K5       0.150000
     14 H8           2.7600    -2.1720     0.0380 ha         1 8K5       0.150000
     15 H2          -3.7100     0.2460    -1.9710 hn         1 8K5       0.378250
     16 H3          -5.2030    -0.4220    -1.4680 hn         1 8K5       0.378250
     17 H9           0.3350    -2.1290    -0.5200 ha         1 8K5       0.123000
     18 H6           0.4350     2.1990    -0.5510 ha         1 8K5       0.123000
     19 H4          -1.4950     0.9640    -1.5120 h1         1 8K5       0.084700
     20 H5          -1.5320    -0.8170    -1.5090 h1         1 8K5       0.084700
     21 H           -4.6700     0.0540     1.9550 hn         1 8K5       0.378250
     22 H1          -5.8850     0.0280     0.7440 hn         1 8K5       0.378250
@<TRIPOS>BOND
     1     1     2 ar  
     2     1     7 ar  
     3     1    13 1   
     4     2     3 ar  
     5     2     6 1   
     6     3     5 ar  
     7     3    14 1   
     8     4    11 2   
     9     4    15 1   
    10     4    16 1   
    11     5     8 ar  
    12     5    17 1   
    13     7     8 ar  
    14     7    18 1   
    15     8     9 1   
    16     9    10 1   
    17     9    19 1   
    18     9    20 1   
    19    10    11 1   
    20    11    12 1   
    21    12    21 1   
    22    12    22 1   
@<TRIPOS>SUBSTRUCTURE
     1 8K5         1 TEMP              0 ****  ****    0 ROOT
