@<TRIPOS>MOLECULE
8K5
   22    22     1     0     0
SMALL
bcc


@<TRIPOS>ATOM
      1 C4           2.1930     1.2170    -0.0760 ca         1 8K5      -0.116000
      2 C5           2.8490     0.0110     0.1120 ca         1 8K5       0.062400
      3 C6           2.1950    -1.1990    -0.0670 ca         1 8K5      -0.116000
      4 N1          -4.2220    -0.0110    -1.2030 nv         1 8K5      -0.476100
      5 C7           0.8600    -1.1940    -0.4390 ca         1 8K5      -0.086000
      6 CL           4.5170     0.0140     0.5750 cl         1 8K5      -0.059400
      7 C3           0.8580     1.2060    -0.4490 ca         1 8K5      -0.086000
      8 C2           0.1830     0.0050    -0.6390 ca         1 8K5      -0.138300
      9 C1          -1.2670     0.0010    -1.0200 c3         1 8K5       0.059000
     10 S           -2.1960     0.0560     0.5540 ss         1 8K5      -0.106300
     11 C           -3.8620     0.0080     0.0560 c2         1 8K5       0.421700
     12 N           -4.7500    -0.0050     1.0240 nv         1 8K5      -0.460200
     13 H7           2.7110     2.1550     0.0670 ha         1 8K5       0.168000
     14 H8           2.7160    -2.1350     0.0830 ha         1 8K5       0.168000
     15 H2          -3.5590     0.0120    -1.9600 hn         1 8K5       0.327950
     16 H3          -5.1970    -0.0450    -1.4660 hn         1 8K5       0.327950
     17 H9           0.3470    -2.1370    -0.5810 ha         1 8K5       0.141000
     18 H6           0.3440     2.1470    -0.6000 ha         1 8K5       0.141000
     19 H4          -1.5200     0.8760    -1.6180 h1         1 8K5       0.084700
     20 H5          -1.5320    -0.9070    -1.5590 h1         1 8K5       0.084700
     21 H           -4.4770    -0.0060     1.9940 hn         1 8K5       0.327950
     22 H1          -5.7400    -0.0170     0.8320 hn         1 8K5       0.327950
@<TRIPOS>BOND
     1     1     2 ar  
     2     1     7 ar  
     3     1    13 1   
     4     2     3 ar  
     5     2     6 1   
     6     3     5 ar  
     7     3    14 1   
     8     4    11 2   
     9     4    15 1   
    10     4    16 1   
    11     5     8 ar  
    12     5    17 1   
    13     7     8 ar  
    14     7    18 1   
    15     8     9 1   
    16     9    10 1   
    17     9    19 1   
    18     9    20 1   
    19    10    11 1   
    20    11    12 1   
    21    12    21 1   
    22    12    22 1   
@<TRIPOS>SUBSTRUCTURE
     1 8K5         1 TEMP              0 ****  ****    0 ROOT
