@<TRIPOS>MOLECULE
8K6
   56    55     1     0     0
SMALL
No Charge or Current Charge


@<TRIPOS>ATOM
      1 C1          10.9390    -0.3330    -0.0110 c3         1 8K6      -0.088600
      2 C2           9.6470     0.5070    -0.0090 c3         1 8K6      -0.074900
      3 C3           8.3650    -0.3550    -0.0090 c3         1 8K6      -0.075400
      4 C4           7.0710     0.4880    -0.0070 c3         1 8K6      -0.074400
      5 C5           5.7890    -0.3740    -0.0070 c3         1 8K6      -0.074400
      6 C6           4.4950     0.4690    -0.0050 c3         1 8K6      -0.074400
      7 C7           3.2130    -0.3930    -0.0050 c3         1 8K6      -0.074400
      8 C8           1.9180     0.4500    -0.0030 c3         1 8K6      -0.074400
      9 C9           0.6370    -0.4120    -0.0020 c3         1 8K6      -0.074400
     10 C10         -0.6580     0.4310     0.0000 c3         1 8K6      -0.074400
     11 C11         -1.9400    -0.4310     0.0020 c3         1 8K6      -0.074400
     12 C12         -3.2340     0.4120     0.0040 c3         1 8K6      -0.074400
     13 C13         -4.5160    -0.4500     0.0060 c3         1 8K6      -0.074400
     14 C14         -5.8100     0.3930     0.0080 c3         1 8K6      -0.074400
     15 C15         -7.0920    -0.4680     0.0100 c3         1 8K6      -0.074400
     16 C16         -8.3860     0.3740     0.0130 c3         1 8K6      -0.075400
     17 C17         -9.6680    -0.4870     0.0150 c3         1 8K6      -0.074900
     18 C18        -10.9600     0.3530     0.0180 c3         1 8K6      -0.088600
     19 H11C        10.9870    -0.9730     0.8790 hc         1 8K6       0.031367
     20 H12C        10.9860    -0.9720    -0.9010 hc         1 8K6       0.031367
     21 H13C        11.8200     0.3200    -0.0110 hc         1 8K6       0.031367
     22 H21C         9.6470     1.1590     0.8730 hc         1 8K6       0.036700
     23 H22C         9.6460     1.1600    -0.8900 hc         1 8K6       0.036700
     24 H31C         8.3700    -1.0070    -0.8910 hc         1 8K6       0.036700
     25 H32C         8.3710    -1.0080     0.8730 hc         1 8K6       0.036700
     26 H41C         7.0670     1.1400     0.8750 hc         1 8K6       0.036700
     27 H42C         7.0650     1.1410    -0.8890 hc         1 8K6       0.036700
     28 H51C         5.7930    -1.0260    -0.8890 hc         1 8K6       0.036700
     29 H52C         5.7950    -1.0270     0.8740 hc         1 8K6       0.036700
     30 H61C         4.4910     1.1210     0.8770 hc         1 8K6       0.037200
     31 H62C         4.4890     1.1220    -0.8870 hc         1 8K6       0.037200
     32 H71C         3.2170    -1.0450    -0.8870 hc         1 8K6       0.036700
     33 H72C         3.2190    -1.0460     0.8770 hc         1 8K6       0.036700
     34 H81C         1.9150     1.1020     0.8790 hc         1 8K6       0.036700
     35 H82C         1.9130     1.1030    -0.8850 hc         1 8K6       0.036700
     36 H91C         0.6400    -1.0640    -0.8840 hc         1 8K6       0.037200
     37 H92C         0.6430    -1.0650     0.8800 hc         1 8K6       0.037200
     38 H101        -0.6610     1.0830     0.8820 hc         1 8K6       0.037200
     39 H102        -0.6640     1.0840    -0.8820 hc         1 8K6       0.037200
     40 H111        -1.9360    -1.0830    -0.8810 hc         1 8K6       0.036700
     41 H112        -1.9330    -1.0840     0.8830 hc         1 8K6       0.036700
     42 H121        -3.2370     1.0640     0.8860 hc         1 8K6       0.036700
     43 H122        -3.2400     1.0650    -0.8780 hc         1 8K6       0.036700
     44 H131        -4.5130    -1.1020    -0.8770 hc         1 8K6       0.037200
     45 H132        -4.5100    -1.1030     0.8870 hc         1 8K6       0.037200
     46 H141        -5.8130     1.0450     0.8910 hc         1 8K6       0.036700
     47 H142        -5.8160     1.0460    -0.8730 hc         1 8K6       0.036700
     48 H151        -7.0890    -1.1210    -0.8720 hc         1 8K6       0.036700
     49 H152        -7.0860    -1.1220     0.8910 hc         1 8K6       0.036700
     50 H161        -8.3900     1.0260     0.8960 hc         1 8K6       0.036700
     51 H162        -8.3930     1.0280    -0.8680 hc         1 8K6       0.036700
     52 H171        -9.6700    -1.1390    -0.8680 hc         1 8K6       0.036700
     53 H172        -9.6670    -1.1400     0.8960 hc         1 8K6       0.036700
     54 H181       -11.0050     0.9920     0.9080 hc         1 8K6       0.031367
     55 H182       -11.0090     0.9940    -0.8710 hc         1 8K6       0.031367
     56 H183       -11.8410    -0.3000     0.0190 hc         1 8K6       0.031367
@<TRIPOS>BOND
     1     1     2 1   
     2     1    19 1   
     3     1    20 1   
     4     1    21 1   
     5     2     3 1   
     6     2    22 1   
     7     2    23 1   
     8     3     4 1   
     9     3    24 1   
    10     3    25 1   
    11     4     5 1   
    12     4    26 1   
    13     4    27 1   
    14     5     6 1   
    15     5    28 1   
    16     5    29 1   
    17     6     7 1   
    18     6    30 1   
    19     6    31 1   
    20     7     8 1   
    21     7    32 1   
    22     7    33 1   
    23     8     9 1   
    24     8    34 1   
    25     8    35 1   
    26     9    10 1   
    27     9    36 1   
    28     9    37 1   
    29    10    11 1   
    30    10    38 1   
    31    10    39 1   
    32    11    12 1   
    33    11    40 1   
    34    11    41 1   
    35    12    13 1   
    36    12    42 1   
    37    12    43 1   
    38    13    14 1   
    39    13    44 1   
    40    13    45 1   
    41    14    15 1   
    42    14    46 1   
    43    14    47 1   
    44    15    16 1   
    45    15    48 1   
    46    15    49 1   
    47    16    17 1   
    48    16    50 1   
    49    16    51 1   
    50    17    18 1   
    51    17    52 1   
    52    17    53 1   
    53    18    54 1   
    54    18    55 1   
    55    18    56 1   
@<TRIPOS>SUBSTRUCTURE
     1 8K6         1 TEMP              0 ****  ****    0 ROOT
