@<TRIPOS>MOLECULE
8K6
   56    55     1     0     0
SMALL
abcg2


@<TRIPOS>ATOM
      1 C1          10.7990    -0.3440    -0.0100 c3         1 8K6      -0.088600
      2 C2           9.5340     0.5030    -0.0090 c3         1 8K6      -0.074900
      3 C3           8.2630    -0.3380    -0.0090 c3         1 8K6      -0.075400
      4 C4           6.9860     0.4940    -0.0070 c3         1 8K6      -0.074400
      5 C5           5.7190    -0.3530    -0.0070 c3         1 8K6      -0.074400
      6 C6           4.4400     0.4750    -0.0060 c3         1 8K6      -0.074400
      7 C7           3.1750    -0.3750    -0.0050 c3         1 8K6      -0.074400
      8 C8           1.8940     0.4490    -0.0020 c3         1 8K6      -0.074400
      9 C9           0.6300    -0.4030    -0.0020 c3         1 8K6      -0.074400
     10 C10         -0.6510     0.4210    -0.0020 c3         1 8K6      -0.074400
     11 C11         -1.9150    -0.4310     0.0030 c3         1 8K6      -0.074400
     12 C12         -3.1960     0.3940     0.0020 c3         1 8K6      -0.074400
     13 C13         -4.4610    -0.4560     0.0060 c3         1 8K6      -0.074400
     14 C14         -5.7400     0.3720     0.0090 c3         1 8K6      -0.074400
     15 C15         -7.0080    -0.4740     0.0100 c3         1 8K6      -0.074400
     16 C16         -8.2840     0.3580     0.0150 c3         1 8K6      -0.075400
     17 C17         -9.5560    -0.4830     0.0140 c3         1 8K6      -0.074900
     18 C18        -10.8200     0.3650     0.0180 c3         1 8K6      -0.088600
     19 H11C        10.8400    -0.9910     0.8690 hc         1 8K6       0.031367
     20 H12C        10.8400    -0.9870    -0.8920 hc         1 8K6       0.031367
     21 H13C        11.6990     0.2720    -0.0090 hc         1 8K6       0.031367
     22 H21C         9.5330     1.1600     0.8670 hc         1 8K6       0.036700
     23 H22C         9.5320     1.1630    -0.8820 hc         1 8K6       0.036700
     24 H31C         8.2660    -0.9970    -0.8850 hc         1 8K6       0.036700
     25 H32C         8.2670    -0.9990     0.8650 hc         1 8K6       0.036700
     26 H41C         6.9830     1.1530     0.8680 hc         1 8K6       0.036700
     27 H42C         6.9820     1.1540    -0.8820 hc         1 8K6       0.036700
     28 H51C         5.7240    -1.0120    -0.8830 hc         1 8K6       0.036700
     29 H52C         5.7250    -1.0130     0.8680 hc         1 8K6       0.036700
     30 H61C         4.4340     1.1330     0.8700 hc         1 8K6       0.037200
     31 H62C         4.4330     1.1350    -0.8800 hc         1 8K6       0.037200
     32 H71C         3.1810    -1.0340    -0.8810 hc         1 8K6       0.036700
     33 H72C         3.1830    -1.0360     0.8690 hc         1 8K6       0.036700
     34 H81C         1.8880     1.1070     0.8750 hc         1 8K6       0.036700
     35 H82C         1.8860     1.1100    -0.8760 hc         1 8K6       0.036700
     36 H91C         0.6370    -1.0620    -0.8780 hc         1 8K6       0.037200
     37 H92C         0.6380    -1.0630     0.8730 hc         1 8K6       0.037200
     38 H101        -0.6570     1.0830     0.8720 hc         1 8K6       0.037200
     39 H102        -0.6610     1.0780    -0.8790 hc         1 8K6       0.037200
     40 H111        -1.9090    -1.0940    -0.8700 hc         1 8K6       0.036700
     41 H112        -1.9070    -1.0870     0.8810 hc         1 8K6       0.036700
     42 H121        -3.2020     1.0560     0.8750 hc         1 8K6       0.036700
     43 H122        -3.2030     1.0510    -0.8750 hc         1 8K6       0.036700
     44 H131        -4.4570    -1.1150    -0.8700 hc         1 8K6       0.037200
     45 H132        -4.4530    -1.1150     0.8810 hc         1 8K6       0.037200
     46 H141        -5.7440     1.0310     0.8850 hc         1 8K6       0.036700
     47 H142        -5.7470     1.0320    -0.8660 hc         1 8K6       0.036700
     48 H151        -7.0050    -1.1320    -0.8660 hc         1 8K6       0.036700
     49 H152        -7.0010    -1.1350     0.8850 hc         1 8K6       0.036700
     50 H161        -8.2860     1.0150     0.8920 hc         1 8K6       0.036700
     51 H162        -8.2890     1.0200    -0.8580 hc         1 8K6       0.036700
     52 H171        -9.5550    -1.1390    -0.8630 hc         1 8K6       0.036700
     53 H172        -9.5530    -1.1440     0.8860 hc         1 8K6       0.036700
     54 H181       -10.8600     1.0070     0.9000 hc         1 8K6       0.031367
     55 H182       -10.8620     1.0120    -0.8610 hc         1 8K6       0.031367
     56 H183       -11.7200    -0.2510     0.0160 hc         1 8K6       0.031367
@<TRIPOS>BOND
     1     1     2 1   
     2     1    19 1   
     3     1    20 1   
     4     1    21 1   
     5     2     3 1   
     6     2    22 1   
     7     2    23 1   
     8     3     4 1   
     9     3    24 1   
    10     3    25 1   
    11     4     5 1   
    12     4    26 1   
    13     4    27 1   
    14     5     6 1   
    15     5    28 1   
    16     5    29 1   
    17     6     7 1   
    18     6    30 1   
    19     6    31 1   
    20     7     8 1   
    21     7    32 1   
    22     7    33 1   
    23     8     9 1   
    24     8    34 1   
    25     8    35 1   
    26     9    10 1   
    27     9    36 1   
    28     9    37 1   
    29    10    11 1   
    30    10    38 1   
    31    10    39 1   
    32    11    12 1   
    33    11    40 1   
    34    11    41 1   
    35    12    13 1   
    36    12    42 1   
    37    12    43 1   
    38    13    14 1   
    39    13    44 1   
    40    13    45 1   
    41    14    15 1   
    42    14    46 1   
    43    14    47 1   
    44    15    16 1   
    45    15    48 1   
    46    15    49 1   
    47    16    17 1   
    48    16    50 1   
    49    16    51 1   
    50    17    18 1   
    51    17    52 1   
    52    17    53 1   
    53    18    54 1   
    54    18    55 1   
    55    18    56 1   
@<TRIPOS>SUBSTRUCTURE
     1 8K6         1 TEMP              0 ****  ****    0 ROOT
