@<TRIPOS>MOLECULE
8K7
   55    59     1     0     0
SMALL
No Charge or Current Charge


@<TRIPOS>ATOM
      1 C13          0.3440    -1.4050     1.8970 ca         1 8K7      -0.088000
      2 C18          2.0640     0.9250    -0.3390 c          1 8K7       0.619100
      3 C17          0.2790    -1.8940    -0.4790 ca         1 8K7      -0.088000
      4 C16          0.7460    -3.1940    -0.2210 ca         1 8K7      -0.153000
      5 C15          1.0080    -3.5980     1.0920 ca         1 8K7       0.166000
      6 C23         -3.7410     4.4300    -1.5300 c3         1 8K7       0.150900
      7 C24          4.2720     1.0460     0.1500 cy         1 8K7       0.083000
      8 C11          0.0390    -0.9770     0.5800 ca         1 8K7      -0.085300
      9 C12          0.8410     1.3880     0.4730 c3         1 8K7      -0.148400
     10 C1          -1.5440     0.9330     1.3930 c6         1 8K7      -0.048200
     11 C2          -0.4500     0.4910     0.3180 c6         1 8K7       0.027300
     12 C3          -1.1450     0.6750    -1.1000 c6         1 8K7      -0.048200
     13 C4          -2.4540    -0.2230    -1.1660 c6         1 8K7      -0.072900
     14 C5          -3.5040     0.1560    -0.0480 c6         1 8K7      -0.055700
     15 C6          -2.8050     0.0100     1.3300 c6         1 8K7      -0.072900
     16 C7          -2.0250     2.4090     1.1930 c6         1 8K7      -0.080400
     17 C8          -3.9480     1.6360    -0.2550 c6         1 8K7      -0.095400
     18 C9          -2.7110     2.5950    -0.1880 c6         1 8K7       0.185000
     19 C10         -1.6670     2.1580    -1.2980 c6         1 8K7      -0.080400
     20 C14          0.8160    -2.7040     2.1510 ca         1 8K7      -0.153000
     21 N19          3.0290     0.2760     0.5020 nj         1 8K7      -0.420800
     22 O20          2.0710     1.1970    -1.5390 o          1 8K7      -0.615100
     23 F21          1.4660    -4.8450     1.3370 f          1 8K7      -0.180000
     24 O22         -3.0940     3.9870    -0.3190 os         1 8K7      -0.460000
     25 C25          4.9390    -0.3470    -0.1060 cy         1 8K7       0.131300
     26 C26          3.4840    -0.8640    -0.3670 cy         1 8K7       0.083000
     27 O27          5.8520    -0.4230    -1.1970 oh         1 8K7      -0.637000
     28 H43          0.2370    -0.7320     2.7430 ha         1 8K7       0.121000
     29 H46          0.1150    -1.6180    -1.5150 ha         1 8K7       0.121000
     30 H45          0.9150    -3.8860    -1.0420 ha         1 8K7       0.132500
     31 H48         -4.6940     3.9090    -1.6880 h1         1 8K7       0.027033
     32 H49         -3.9560     5.5040    -1.4690 h1         1 8K7       0.027033
     33 H47         -3.1020     4.2700    -2.4070 h1         1 8K7       0.027033
     34 H50          4.6990     1.5900     0.9990 h1         1 8K7       0.064700
     35 H41          1.1230     1.3760     1.5330 hc         1 8K7       0.064700
     36 H42          0.6440     2.4250     0.1970 hc         1 8K7       0.064700
     37 H28         -1.1260     0.8770     2.4050 hc         1 8K7       0.059200
     38 H29         -0.4640     0.4290    -1.9240 hc         1 8K7       0.059200
     39 H31         -2.9210    -0.1180    -2.1550 hc         1 8K7       0.045200
     40 H30         -2.2080    -1.2880    -1.0790 hc         1 8K7       0.045200
     41 H32         -4.3750    -0.5110    -0.1050 hc         1 8K7       0.051700
     42 H34         -2.5280    -1.0390     1.5050 hc         1 8K7       0.045200
     43 H33         -3.5060     0.2740     2.1340 hc         1 8K7       0.045200
     44 H35         -2.7340     2.6730     1.9900 hc         1 8K7       0.053950
     45 H36         -1.1910     3.1130     1.3030 hc         1 8K7       0.053950
     46 H38         -4.4540     1.7220    -1.2260 hc         1 8K7       0.046700
     47 H37         -4.6870     1.9180     0.5080 hc         1 8K7       0.046700
     48 H40         -0.8340     2.8690    -1.3350 hc         1 8K7       0.053950
     49 H39         -2.1370     2.2240    -2.2880 hc         1 8K7       0.053950
     50 H44          1.0400    -3.0150     3.1680 ha         1 8K7       0.132500
     51 H52          5.3890    -0.7740     0.7990 h1         1 8K7       0.049700
     52 H53          3.2810    -1.8460     0.0730 h1         1 8K7       0.064700
     53 H54          3.1890    -0.8560    -1.4230 h1         1 8K7       0.064700
     54 H55          6.1370    -1.3600    -1.2840 ho         1 8K7       0.451000
     55 H51          4.2430     1.6910    -0.7370 h1         1 8K7       0.064700
@<TRIPOS>BOND
     1     1     8 ar  
     2     1    20 ar  
     3     1    28 1   
     4     2     9 1   
     5     2    21 1   
     6     2    22 2   
     7     3     4 ar  
     8     3     8 ar  
     9     3    29 1   
    10     4     5 ar  
    11     4    30 1   
    12     5    20 ar  
    13     5    23 1   
    14     6    24 1   
    15     6    31 1   
    16     6    32 1   
    17     6    33 1   
    18     7    21 1   
    19     7    25 1   
    20     7    34 1   
    21     7    55 1   
    22     8    11 1   
    23     9    11 1   
    24     9    35 1   
    25     9    36 1   
    26    10    11 1   
    27    10    15 1   
    28    10    16 1   
    29    10    37 1   
    30    11    12 1   
    31    12    13 1   
    32    12    19 1   
    33    12    38 1   
    34    13    14 1   
    35    13    39 1   
    36    13    40 1   
    37    14    15 1   
    38    14    17 1   
    39    14    41 1   
    40    15    42 1   
    41    15    43 1   
    42    16    18 1   
    43    16    44 1   
    44    16    45 1   
    45    17    18 1   
    46    17    46 1   
    47    17    47 1   
    48    18    19 1   
    49    18    24 1   
    50    19    48 1   
    51    19    49 1   
    52    20    50 1   
    53    21    26 1   
    54    25    26 1   
    55    25    27 1   
    56    25    51 1   
    57    26    52 1   
    58    26    53 1   
    59    27    54 1   
@<TRIPOS>SUBSTRUCTURE
     1 8K7         1 TEMP              0 ****  ****    0 ROOT
