@<TRIPOS>MOLECULE
8K7
   55    59     1     0     0
SMALL
bcc


@<TRIPOS>ATOM
      1 C13          0.1980    -1.5760     1.5690 ca         1 8K7      -0.106000
      2 C18          1.8550     1.2850    -0.5870 c          1 8K7       0.686100
      3 C17          0.5590    -1.5920    -0.7830 ca         1 8K7      -0.106000
      4 C16          1.1360    -2.8520    -0.6980 ca         1 8K7      -0.171000
      5 C15          1.2260    -3.4580     0.5370 ca         1 8K7       0.130900
      6 C23         -3.6750     4.4100    -1.1900 c3         1 8K7       0.127700
      7 C24          4.1140     0.2950    -1.0630 cy         1 8K7       0.083000
      8 C11          0.0760    -0.9230     0.3420 ca         1 8K7      -0.085300
      9 C12          0.7850     1.4240     0.4720 c3         1 8K7      -0.148400
     10 C1          -1.5050     0.8060     1.3550 c6         1 8K7      -0.048200
     11 C2          -0.4530     0.5110     0.2520 c6         1 8K7       0.027300
     12 C3          -1.1690     0.7810    -1.0960 c6         1 8K7      -0.048200
     13 C4          -2.3730    -0.1510    -1.2560 c6         1 8K7      -0.072900
     14 C5          -3.3830     0.1100    -0.1410 c6         1 8K7      -0.055700
     15 C6          -2.7090    -0.1300     1.2090 c6         1 8K7      -0.072900
     16 C7          -2.0190     2.2460     1.2750 c6         1 8K7      -0.080400
     17 C8          -3.8730     1.5590    -0.2290 c6         1 8K7      -0.095400
     18 C9          -2.6840     2.5120    -0.0740 c6         1 8K7       0.161800
     19 C10         -1.6660     2.2290    -1.1810 c6         1 8K7      -0.080400
     20 C14          0.7610    -2.8400     1.6790 ca         1 8K7      -0.171000
     21 N19          2.9690     0.6380    -0.2400 nj         1 8K7      -0.487800
     22 O20          1.7290     1.7590    -1.7140 o          1 8K7      -0.615100
     23 F21          1.7760    -4.6810     0.6300 f          1 8K7      -0.144900
     24 O22         -3.0860     3.8730    -0.0320 os         1 8K7      -0.413600
     25 C25          4.7540    -0.3540     0.1770 cy         1 8K7       0.108100
     26 C26          3.4260    -0.0950     0.9310 cy         1 8K7       0.083000
     27 O27          5.1290    -1.6790    -0.0310 oh         1 8K7      -0.574800
     28 H43         -0.1460    -1.1040     2.4790 ha         1 8K7       0.139000
     29 H46          0.4960    -1.1380    -1.7620 ha         1 8K7       0.139000
     30 H45          1.5060    -3.3480    -1.5860 ha         1 8K7       0.150500
     31 H48         -4.5700     3.8680    -1.5100 h1         1 8K7       0.027033
     32 H49         -3.9750     5.4310    -0.9520 h1         1 8K7       0.027033
     33 H47         -2.9860     4.4540    -2.0390 h1         1 8K7       0.027033
     34 H50          4.6420     1.1450    -1.4960 h1         1 8K7       0.064700
     35 H41          1.1880     1.2060     1.4650 hc         1 8K7       0.064700
     36 H42          0.4910     2.4740     0.4810 hc         1 8K7       0.064700
     37 H28         -1.0560     0.6750     2.3450 hc         1 8K7       0.059200
     38 H29         -0.4800     0.6280    -1.9260 hc         1 8K7       0.059200
     39 H31         -2.8330     0.0270    -2.2340 hc         1 8K7       0.045200
     40 H30         -2.0610    -1.1980    -1.2460 hc         1 8K7       0.045200
     41 H32         -4.2370    -0.5660    -0.2480 hc         1 8K7       0.051700
     42 H34         -2.4090    -1.1760     1.3000 hc         1 8K7       0.045200
     43 H33         -3.4150     0.0620     2.0230 hc         1 8K7       0.045200
     44 H35         -2.7490     2.3990     2.0780 hc         1 8K7       0.053950
     45 H36         -1.2200     2.9720     1.4460 hc         1 8K7       0.053950
     46 H38         -4.3740     1.7110    -1.1900 hc         1 8K7       0.046700
     47 H37         -4.6120     1.7590     0.5540 hc         1 8K7       0.046700
     48 H40         -0.8330     2.9350    -1.1230 hc         1 8K7       0.053950
     49 H39         -2.1180     2.3700    -2.1690 hc         1 8K7       0.053950
     50 H44          0.8390    -3.3270     2.6430 ha         1 8K7       0.150500
     51 H52          5.5720     0.2480     0.5830 h1         1 8K7       0.049700
     52 H53          3.4940     0.5000     1.8430 h1         1 8K7       0.064700
     53 H54          2.8590    -1.0060     1.1270 h1         1 8K7       0.064700
     54 H55          5.4730    -2.0320     0.7950 ho         1 8K7       0.412000
     55 H51          3.8750    -0.4210    -1.8550 h1         1 8K7       0.064700
@<TRIPOS>BOND
     1     1     8 ar  
     2     1    20 ar  
     3     1    28 1   
     4     2     9 1   
     5     2    21 1   
     6     2    22 2   
     7     3     4 ar  
     8     3     8 ar  
     9     3    29 1   
    10     4     5 ar  
    11     4    30 1   
    12     5    20 ar  
    13     5    23 1   
    14     6    24 1   
    15     6    31 1   
    16     6    32 1   
    17     6    33 1   
    18     7    21 1   
    19     7    25 1   
    20     7    34 1   
    21     7    55 1   
    22     8    11 1   
    23     9    11 1   
    24     9    35 1   
    25     9    36 1   
    26    10    11 1   
    27    10    15 1   
    28    10    16 1   
    29    10    37 1   
    30    11    12 1   
    31    12    13 1   
    32    12    19 1   
    33    12    38 1   
    34    13    14 1   
    35    13    39 1   
    36    13    40 1   
    37    14    15 1   
    38    14    17 1   
    39    14    41 1   
    40    15    42 1   
    41    15    43 1   
    42    16    18 1   
    43    16    44 1   
    44    16    45 1   
    45    17    18 1   
    46    17    46 1   
    47    17    47 1   
    48    18    19 1   
    49    18    24 1   
    50    19    48 1   
    51    19    49 1   
    52    20    50 1   
    53    21    26 1   
    54    25    26 1   
    55    25    27 1   
    56    25    51 1   
    57    26    52 1   
    58    26    53 1   
    59    27    54 1   
@<TRIPOS>SUBSTRUCTURE
     1 8K7         1 TEMP              0 ****  ****    0 ROOT
