@<TRIPOS>MOLECULE
8K8
   58    62     1     0     0
SMALL
No Charge or Current Charge


@<TRIPOS>ATOM
      1 C10          0.8390    -3.4430     0.4520 c3         1 8K8      -0.104400
      2 C13          0.3620    -0.2220    -0.0530 cc         1 8K8       0.438900
      3 C14          0.5490     1.0440     0.3590 cd         1 8K8      -0.355600
      4 C16         -1.6140     0.6080     0.0560 cd         1 8K8       0.489800
      5 C18         -3.1340     0.7250     0.0190 c5         1 8K8      -0.110300
      6 C21         -4.8630    -1.0010    -0.3950 c5         1 8K8      -0.078900
      7 C22         -3.8430    -0.0780    -1.1530 c5         1 8K8      -0.045700
      8 C23         -4.7100     1.0140    -1.8770 c5         1 8K8      -0.078900
      9 C24         -5.0860     1.9340    -0.6820 c5         1 8K8      -0.065700
     10 C25         -3.6460     2.2030    -0.1630 c5         1 8K8      -0.072900
     11 C26         -5.9680     1.2050     0.3690 c6         1 8K8      -0.068400
     12 C27          1.8750     1.5940     0.6310 c          1 8K8       0.633600
     13 C01          7.1280     2.8480    -1.4810 c3         1 8K8      -0.088100
     14 C02          6.4370     2.2360    -0.2480 c3         1 8K8      -0.072400
     15 C03          4.9980     1.7570    -0.5370 c3         1 8K8      -0.095400
     16 N05          2.9200     0.6860     0.4130 n          1 8K8      -0.373400
     17 C06          2.7270    -0.6460    -0.0090 c          1 8K8       0.623000
     18 O07          3.6770    -1.4010    -0.1670 o          1 8K8      -0.556000
     19 N08          1.4100    -1.0880    -0.2430 n          1 8K8      -0.360300
     20 C09          1.1750    -2.4790    -0.7040 c3         1 8K8       0.116000
     21 C11          0.5790    -4.8810    -0.0320 c3         1 8K8       0.167600
     22 O12          0.2840    -5.7180     1.0890 oh         1 8K8      -0.659000
     23 N15         -0.7250     1.5950     0.4430 na         1 8K8      -0.243500
     24 N17         -0.9550    -0.5070    -0.2390 nc         1 8K8      -0.712000
     25 C19         -3.8040     0.1770     1.3310 c5         1 8K8      -0.072900
     26 C20         -5.2430    -0.0960     0.8120 c5         1 8K8      -0.065700
     27 H1           1.6690    -3.4470     1.1680 hc         1 8K8       0.067200
     28 H2          -5.7300    -1.2810    -1.0050 hc         1 8K8       0.050950
     29 H3          -4.3940    -1.9390    -0.0710 hc         1 8K8       0.050950
     30 H4          -3.1770    -0.6240    -1.8310 hc         1 8K8       0.079700
     31 H5          -4.1300     1.5490    -2.6390 hc         1 8K8       0.050950
     32 H6          -5.5880     0.6010    -2.3870 hc         1 8K8       0.050950
     33 H7          -5.6070     2.8480    -0.9910 hc         1 8K8       0.063200
     34 H8          -3.6320     2.7860     0.7650 hc         1 8K8       0.051450
     35 H9          -3.0510     2.7610    -0.8970 hc         1 8K8       0.051450
     36 H10         -6.1450     1.8560     1.2360 hc         1 8K8       0.043200
     37 H11         -6.9500     0.9650    -0.0610 hc         1 8K8       0.043200
     38 H12          8.1440     3.1730    -1.2280 hc         1 8K8       0.032367
     39 H13          7.1940     2.1140    -2.2930 hc         1 8K8       0.032367
     40 H14          6.5700     3.7190    -1.8460 hc         1 8K8       0.032367
     41 H15          7.0360     1.3910     0.1140 hc         1 8K8       0.039200
     42 H16          6.4170     2.9820     0.5570 hc         1 8K8       0.039200
     43 H17          4.4010     2.6030    -0.8990 hc         1 8K8       0.050700
     44 H18          5.0200     1.0120    -1.3420 hc         1 8K8       0.050700
     45 H19          4.9090     0.3040     1.0710 h1         1 8K8       0.070700
     46 H20          4.2940     1.8860     1.5080 h1         1 8K8       0.070700
     47 H21          2.0520    -2.8540    -1.2480 h1         1 8K8       0.070700
     48 H22         -0.2630    -4.8800    -0.7380 h1         1 8K8       0.017200
     49 H23          1.4660    -5.2520    -0.5620 h1         1 8K8       0.017200
     50 H24          0.1250    -6.6220     0.7360 ho         1 8K8       0.443000
     51 H25         -0.9780     2.5330     0.7320 hn         1 8K8       0.375000
     52 H27         -3.3200    -0.7400     1.6900 hc         1 8K8       0.051450
     53 H28         -3.7790     0.8920     2.1630 hc         1 8K8       0.051450
     54 H29         -5.8750    -0.6060     1.5490 hc         1 8K8       0.063200
     55 H30         -0.0470    -3.0760     0.9830 hc         1 8K8       0.067200
     56 H31          0.3440    -2.4800    -1.4220 h1         1 8K8       0.070700
     57 O28          2.0390     2.7460     1.0090 o          1 8K8      -0.538000
     58 C04          4.3070     1.1440     0.6990 c3         1 8K8       0.099000
@<TRIPOS>BOND
     1     1    20 1   
     2     1    21 1   
     3     1    27 1   
     4     1    55 1   
     5     2     3 2   
     6     2    19 1   
     7     2    24 1   
     8     3    12 1   
     9     3    23 1   
    10     4     5 1   
    11     4    23 1   
    12     4    24 2   
    13     5     7 1   
    14     5    10 1   
    15     5    25 1   
    16     6     7 1   
    17     6    26 1   
    18     6    28 1   
    19     6    29 1   
    20     7     8 1   
    21     7    30 1   
    22     8     9 1   
    23     8    31 1   
    24     8    32 1   
    25     9    10 1   
    26     9    11 1   
    27     9    33 1   
    28    10    34 1   
    29    10    35 1   
    30    11    26 1   
    31    11    36 1   
    32    11    37 1   
    33    12    16 1   
    34    12    57 2   
    35    13    14 1   
    36    13    38 1   
    37    13    39 1   
    38    13    40 1   
    39    14    15 1   
    40    14    41 1   
    41    14    42 1   
    42    15    43 1   
    43    15    44 1   
    44    15    58 1   
    45    16    17 1   
    46    16    58 1   
    47    17    18 2   
    48    17    19 1   
    49    19    20 1   
    50    20    47 1   
    51    20    56 1   
    52    21    22 1   
    53    21    48 1   
    54    21    49 1   
    55    22    50 1   
    56    23    51 1   
    57    25    26 1   
    58    25    52 1   
    59    25    53 1   
    60    26    54 1   
    61    45    58 1   
    62    46    58 1   
@<TRIPOS>SUBSTRUCTURE
     1 8K8         1 TEMP              0 ****  ****    0 ROOT
