@<TRIPOS>MOLECULE
8K8
   58    62     1     0     0
SMALL
bcc


@<TRIPOS>ATOM
      1 C10          0.9300    -3.3930     0.5790 c3         1 8K8      -0.104400
      2 C13          0.3370    -0.2590    -0.0230 cc         1 8K8       0.504200
      3 C14          0.5150     1.0340     0.3870 cd         1 8K8      -0.370200
      4 C16         -1.6020     0.5820     0.0720 cd         1 8K8       0.489800
      5 C18         -3.0750     0.7370     0.0380 c5         1 8K8      -0.110300
      6 C21         -4.7550    -0.9140    -0.6780 c5         1 8K8      -0.078900
      7 C22         -3.7590     0.1040    -1.2460 c5         1 8K8      -0.045700
      8 C23         -4.5690     1.2630    -1.8390 c5         1 8K8      -0.078900
      9 C24         -4.9640     2.0160    -0.5700 c5         1 8K8      -0.065700
     10 C25         -3.5810     2.1910     0.0570 c5         1 8K8      -0.072900
     11 C26         -5.8410     1.1180     0.3210 c6         1 8K8      -0.068400
     12 C27          1.7920     1.5980     0.6370 c          1 8K8       0.776100
     13 C01          6.9010     2.7460    -1.5750 c3         1 8K8      -0.088100
     14 C02          6.2530     2.1600    -0.3280 c3         1 8K8      -0.072400
     15 C03          4.8270     1.6870    -0.5830 c3         1 8K8      -0.095400
     16 N05          2.8170     0.6590     0.4580 n          1 8K8      -0.507400
     17 C06          2.6680    -0.6590     0.0330 c          1 8K8       0.832500
     18 O07          3.6310    -1.3890    -0.1100 o          1 8K8      -0.631500
     19 N08          1.3930    -1.1010    -0.2200 n          1 8K8      -0.427300
     20 C09          1.1590    -2.4830    -0.6190 c3         1 8K8       0.116000
     21 C11          0.6450    -4.8140     0.1340 c3         1 8K8       0.144400
     22 O12          0.4240    -5.6110     1.2770 oh         1 8K8      -0.596800
     23 N15         -0.7550     1.5560     0.4360 na         1 8K8      -0.243900
     24 N17         -0.9610    -0.5450    -0.2140 nc         1 8K8      -0.712000
     25 C19         -3.7720     0.0190     1.2180 c5         1 8K8      -0.072900
     26 C20         -5.1570    -0.2280     0.6260 c5         1 8K8      -0.065700
     27 H1           1.8100    -3.3770     1.2270 hc         1 8K8       0.067200
     28 H2          -5.5880    -1.0970    -1.3610 hc         1 8K8       0.050950
     29 H3          -4.2800    -1.8770    -0.4720 hc         1 8K8       0.050950
     30 H4          -3.0430    -0.3330    -1.9410 hc         1 8K8       0.079700
     31 H5          -3.9590     1.9000    -2.4850 hc         1 8K8       0.050950
     32 H6          -5.4190     0.9100    -2.4260 hc         1 8K8       0.050950
     33 H7          -5.4630     2.9670    -0.7650 hc         1 8K8       0.063200
     34 H8          -3.5980     2.6120     1.0650 hc         1 8K8       0.051450
     35 H9          -2.9740     2.8470    -0.5740 hc         1 8K8       0.051450
     36 H10         -6.0690     1.6350     1.2580 hc         1 8K8       0.043200
     37 H11         -6.7990     0.9360    -0.1760 hc         1 8K8       0.043200
     38 H12          7.9200     3.0800    -1.3770 hc         1 8K8       0.032367
     39 H13          6.9440     2.0120    -2.3810 hc         1 8K8       0.032367
     40 H14          6.3370     3.6060    -1.9410 hc         1 8K8       0.032367
     41 H15          6.8540     1.3250     0.0430 hc         1 8K8       0.039200
     42 H16          6.2500     2.9110     0.4680 hc         1 8K8       0.039200
     43 H17          4.2260     2.5210    -0.9560 hc         1 8K8       0.050700
     44 H18          4.8300     0.9230    -1.3660 hc         1 8K8       0.050700
     45 H19          4.7730     0.2890     1.0610 h1         1 8K8       0.070700
     46 H20          4.1600     1.8790     1.4600 h1         1 8K8       0.070700
     47 H21          2.0100    -2.8170    -1.2080 h1         1 8K8       0.070700
     48 H22         -0.2300    -4.8170    -0.5310 h1         1 8K8       0.017200
     49 H23          1.4920    -5.1880    -0.4570 h1         1 8K8       0.017200
     50 H24          0.2670    -6.5130     0.9860 ho         1 8K8       0.404000
     51 H25         -1.0030     2.4940     0.7100 hn         1 8K8       0.324700
     52 H27         -3.2840    -0.9290     1.4580 hc         1 8K8       0.051450
     53 H28         -3.7700     0.6330     2.1220 hc         1 8K8       0.051450
     54 H29         -5.7900    -0.8450     1.2660 hc         1 8K8       0.063200
     55 H30          0.0850    -3.0170     1.1610 hc         1 8K8       0.067200
     56 H31          0.2880    -2.4870    -1.2740 h1         1 8K8       0.070700
     57 O28          2.0190     2.7480     0.9720 o          1 8K8      -0.613500
     58 C04          4.1890     1.1230     0.6780 c3         1 8K8       0.099000
@<TRIPOS>BOND
     1     1    20 1   
     2     1    21 1   
     3     1    27 1   
     4     1    55 1   
     5     2     3 2   
     6     2    19 1   
     7     2    24 1   
     8     3    12 1   
     9     3    23 1   
    10     4     5 1   
    11     4    23 1   
    12     4    24 2   
    13     5     7 1   
    14     5    10 1   
    15     5    25 1   
    16     6     7 1   
    17     6    26 1   
    18     6    28 1   
    19     6    29 1   
    20     7     8 1   
    21     7    30 1   
    22     8     9 1   
    23     8    31 1   
    24     8    32 1   
    25     9    10 1   
    26     9    11 1   
    27     9    33 1   
    28    10    34 1   
    29    10    35 1   
    30    11    26 1   
    31    11    36 1   
    32    11    37 1   
    33    12    16 1   
    34    12    57 2   
    35    13    14 1   
    36    13    38 1   
    37    13    39 1   
    38    13    40 1   
    39    14    15 1   
    40    14    41 1   
    41    14    42 1   
    42    15    43 1   
    43    15    44 1   
    44    15    58 1   
    45    16    17 1   
    46    16    58 1   
    47    17    18 2   
    48    17    19 1   
    49    19    20 1   
    50    20    47 1   
    51    20    56 1   
    52    21    22 1   
    53    21    48 1   
    54    21    49 1   
    55    22    50 1   
    56    23    51 1   
    57    25    26 1   
    58    25    52 1   
    59    25    53 1   
    60    26    54 1   
    61    45    58 1   
    62    46    58 1   
@<TRIPOS>SUBSTRUCTURE
     1 8K8         1 TEMP              0 ****  ****    0 ROOT
