@<TRIPOS>MOLECULE
8K9
   79    82     1     0     0
SMALL
No Charge or Current Charge


@<TRIPOS>ATOM
      1 C1          -6.9920     0.6290     0.4580 c3         1 8K9       0.013300
      2 C2          -7.3480    -0.4830     1.4890 c3         1 8K9      -0.081100
      3 C3          -7.4510     2.0220     1.0240 c3         1 8K9      -0.069400
      4 C4          -8.9570     2.2110     1.3360 c3         1 8K9      -0.088100
      5 C5          -5.4550     0.5810     0.1910 ca         1 8K9      -0.103300
      6 C6          -4.8700    -0.6030    -0.3200 ca         1 8K9      -0.082000
      7 C7          -3.4790    -0.7300    -0.5880 ca         1 8K9      -0.083300
      8 C8          -2.8850    -2.0730    -1.1470 c3         1 8K9       0.017300
      9 C9          -3.9660    -3.1830    -1.3510 c3         1 8K9      -0.084100
     10 C24          5.5280    -1.2220     1.9970 c          1 8K9       0.548200
     11 N1           5.5720    -0.2710     0.9570 n          1 8K9      -0.256000
     12 C19          5.8870     1.1420     1.3420 c6         1 8K9       0.096000
     13 C23          5.2720    -2.6050     1.5800 cc         1 8K9      -0.322200
     14 C22          5.0900    -2.9930     0.2740 cd         1 8K9      -0.077000
     15 C21          5.1510    -1.9780    -0.7350 cd         1 8K9      -0.311000
     16 C20          5.3810    -0.6600    -0.3840 cc         1 8K9       0.090400
     17 C26          5.4200     0.3950    -1.4810 c6         1 8K9      -0.034500
     18 C25          6.3850     1.5380    -1.1030 c6         1 8K9      -0.076400
     19 C18          5.8460     2.1800     0.1880 c6         1 8K9      -0.077700
     20 C17          4.4090     2.7280    -0.0470 c6         1 8K9       0.178800
     21 C27          3.9920     0.9630    -1.7090 c6         1 8K9       0.172800
     22 C16          2.0700     2.1490    -0.6340 c3         1 8K9       0.131800
     23 C15          1.0430     0.9910    -0.7050 c3         1 8K9       0.171300
     24 O2           1.5520    -0.0270     0.1650 oh         1 8K9      -0.648000
     25 C14         -0.3920     1.4320    -0.3140 c3         1 8K9       0.161600
     26 C13         -2.6550     0.4040    -0.3250 ca         1 8K9       0.149100
     27 C12         -2.2670    -1.8240    -2.5540 c3         1 8K9      -0.084100
     28 C10         -1.7860    -2.6530    -0.1910 c3         1 8K9      -0.068400
     29 C11         -2.2100    -2.8190     1.2880 c3         1 8K9      -0.084100
     30 C28         -3.2280     1.5880     0.1820 ca         1 8K9      -0.208000
     31 C29         -4.6010     1.6780     0.4370 ca         1 8K9      -0.075000
     32 C           -7.7360     0.3500    -0.8810 c3         1 8K9      -0.081100
     33 H1          -7.0370    -1.4750     1.1440 hc         1 8K9       0.034033
     34 H2          -6.8540    -0.2920     2.4490 hc         1 8K9       0.034033
     35 H3          -8.4280    -0.5390     1.6650 hc         1 8K9       0.034033
     36 H4          -6.9020     2.2280     1.9510 hc         1 8K9       0.038700
     37 H5          -7.1710     2.8050     0.3080 hc         1 8K9       0.038700
     38 H6          -9.3040     1.5070     2.1020 hc         1 8K9       0.031367
     39 H7          -9.1310     3.2230     1.7210 hc         1 8K9       0.031367
     40 H8          -9.5760     2.0920     0.4400 hc         1 8K9       0.031367
     41 H9          -5.5320    -1.4370    -0.5070 ha         1 8K9       0.113000
     42 H10         -4.4810    -3.4290    -0.4150 hc         1 8K9       0.033367
     43 H11         -4.7180    -2.8720    -2.0860 hc         1 8K9       0.033367
     44 H12         -3.5120    -4.1090    -1.7250 hc         1 8K9       0.033367
     45 H13          5.2070     1.4630     2.1450 h1         1 8K9       0.069200
     46 H14          6.9000     1.1460     1.7680 h1         1 8K9       0.069200
     47 H15          5.2380    -3.3250     2.3910 ha         1 8K9       0.209000
     48 H17          4.9040    -4.0350     0.0160 ha         1 8K9       0.185000
     49 H18          5.0070    -2.2480    -1.7780 ha         1 8K9       0.192000
     50 H20          5.7690    -0.0510    -2.4220 hc         1 8K9       0.073700
     51 H21          7.4040     1.1520    -0.9530 hc         1 8K9       0.056700
     52 H22          6.4380     2.2810    -1.9110 hc         1 8K9       0.056700
     53 H23          6.4870     3.0290     0.4650 hc         1 8K9       0.066700
     54 H24          4.0480     3.1870     0.8850 h1         1 8K9       0.039700
     55 H25          4.4520     3.5280    -0.8010 h1         1 8K9       0.039700
     56 H26          4.0180     1.6610    -2.5600 h1         1 8K9       0.044200
     57 H27          3.3310     0.1340    -1.9980 h1         1 8K9       0.044200
     58 H29          1.8130     2.7690     0.2360 h1         1 8K9       0.044700
     59 H30          1.9660     2.7850    -1.5230 h1         1 8K9       0.044700
     60 H31          1.0230     0.6190    -1.7380 h1         1 8K9       0.043700
     61 H32          2.5080     0.2390     0.2140 ho         1 8K9       0.470000
     62 H33         -0.4120     1.7160     0.7460 h1         1 8K9       0.036700
     63 H34         -0.6720     2.3070    -0.9150 h1         1 8K9       0.036700
     64 H35         -1.9330    -2.7650    -3.0080 hc         1 8K9       0.033367
     65 H36         -3.0060    -1.3710    -3.2260 hc         1 8K9       0.033367
     66 H37         -1.3960    -1.1620    -2.5190 hc         1 8K9       0.033367
     67 H38         -1.4650    -3.6330    -0.5670 hc         1 8K9       0.049700
     68 H39         -0.8840    -2.0350    -0.2200 hc         1 8K9       0.049700
     69 H40         -1.3720    -3.2130     1.8760 hc         1 8K9       0.029700
     70 H41         -2.5030    -1.8580     1.7250 hc         1 8K9       0.029700
     71 H42         -3.0470    -3.5190     1.3900 hc         1 8K9       0.029700
     72 H43         -2.6210     2.4640     0.3900 ha         1 8K9       0.110000
     73 H44         -4.9720     2.6200     0.8280 ha         1 8K9       0.109000
     74 H45         -7.5190     1.1370    -1.6140 hc         1 8K9       0.034033
     75 H46         -7.4400    -0.6080    -1.3220 hc         1 8K9       0.034033
     76 H47         -8.8210     0.3070    -0.7380 hc         1 8K9       0.034033
     77 O           -1.2960     0.3390    -0.5700 os         1 8K9      -0.335100
     78 N            3.4730     1.6590    -0.4900 n3         1 8K9      -0.751600
     79 O1           5.6980    -0.9270     3.1730 o          1 8K9      -0.572000
@<TRIPOS>BOND
     1     1     2 1   
     2     1     3 1   
     3     1     5 1   
     4     1    32 1   
     5     2    33 1   
     6     2    34 1   
     7     2    35 1   
     8     3     4 1   
     9     3    36 1   
    10     3    37 1   
    11     4    38 1   
    12     4    39 1   
    13     4    40 1   
    14     5     6 ar  
    15     5    31 ar  
    16     6     7 ar  
    17     6    41 1   
    18     7     8 1   
    19     7    26 ar  
    20     8     9 1   
    21     8    27 1   
    22     8    28 1   
    23     9    42 1   
    24     9    43 1   
    25     9    44 1   
    26    10    11 1   
    27    10    13 1   
    28    10    79 2   
    29    11    12 1   
    30    11    16 1   
    31    12    19 1   
    32    12    45 1   
    33    12    46 1   
    34    13    14 2   
    35    13    47 1   
    36    14    15 1   
    37    14    48 1   
    38    15    16 2   
    39    15    49 1   
    40    16    17 1   
    41    17    18 1   
    42    17    21 1   
    43    17    50 1   
    44    18    19 1   
    45    18    51 1   
    46    18    52 1   
    47    19    20 1   
    48    19    53 1   
    49    20    54 1   
    50    20    55 1   
    51    20    78 1   
    52    21    56 1   
    53    21    57 1   
    54    21    78 1   
    55    22    23 1   
    56    22    58 1   
    57    22    59 1   
    58    22    78 1   
    59    23    24 1   
    60    23    25 1   
    61    23    60 1   
    62    24    61 1   
    63    25    62 1   
    64    25    63 1   
    65    25    77 1   
    66    26    30 ar  
    67    26    77 1   
    68    27    64 1   
    69    27    65 1   
    70    27    66 1   
    71    28    29 1   
    72    28    67 1   
    73    28    68 1   
    74    29    69 1   
    75    29    70 1   
    76    29    71 1   
    77    30    31 ar  
    78    30    72 1   
    79    31    73 1   
    80    32    74 1   
    81    32    75 1   
    82    32    76 1   
@<TRIPOS>SUBSTRUCTURE
     1 8K9         1 TEMP              0 ****  ****    0 ROOT
