@<TRIPOS>MOLECULE
8K9
   79    82     1     0     0
SMALL
bcc


@<TRIPOS>ATOM
      1 C1          -6.7980     0.5930     0.3740 c3         1 8K9       0.013300
      2 C2          -7.1220    -0.4160     1.4850 c3         1 8K9      -0.081100
      3 C3          -7.2790     1.9920     0.7990 c3         1 8K9      -0.069400
      4 C4          -8.7710     2.1270     1.0780 c3         1 8K9      -0.088100
      5 C5          -5.2890     0.5890     0.1210 ca         1 8K9      -0.103300
      6 C6          -4.6550    -0.6070    -0.2370 ca         1 8K9      -0.100000
      7 C7          -3.2980    -0.7370    -0.4990 ca         1 8K9      -0.083300
      8 C8          -2.6890    -2.0910    -0.8770 c3         1 8K9       0.017300
      9 C9          -3.7450    -3.2020    -0.8900 c3         1 8K9      -0.084100
     10 C24          5.0160    -1.5090     1.6070 c          1 8K9       0.690700
     11 N1           5.1990    -0.4450     0.7170 n          1 8K9      -0.323000
     12 C19          5.5820     0.8250     1.3560 c6         1 8K9       0.096000
     13 C23          4.6380    -2.7580     1.0170 cc         1 8K9      -0.272200
     14 C22          4.5180    -2.8910    -0.3300 cd         1 8K9      -0.027000
     15 C21          4.7580    -1.7930    -1.1750 cd         1 8K9      -0.261000
     16 C20          5.0860    -0.5840    -0.6340 cc         1 8K9       0.090400
     17 C26          5.2860     0.6120    -1.5220 c6         1 8K9      -0.034500
     18 C25          6.2570     1.6040    -0.9040 c6         1 8K9      -0.076400
     19 C18          5.6420     2.0240     0.4210 c6         1 8K9      -0.077700
     20 C17          4.2750     2.6580     0.1880 c6         1 8K9       0.178800
     21 C27          3.9340     1.2970    -1.7510 c6         1 8K9       0.172800
     22 C16          2.0120     2.1970    -0.5740 c3         1 8K9       0.131800
     23 C15          1.0680     0.9940    -0.6610 c3         1 8K9       0.148100
     24 O2           1.4350     0.0340     0.2970 oh         1 8K9      -0.585800
     25 C14         -0.3560     1.4400    -0.4210 c3         1 8K9       0.138400
     26 C13         -2.5220     0.4380    -0.3960 ca         1 8K9       0.149100
     27 C12         -2.1110    -2.0320    -2.3010 c3         1 8K9      -0.084100
     28 C10         -1.5770    -2.5070     0.1140 c3         1 8K9      -0.068400
     29 C11         -1.9830    -2.4890     1.5810 c3         1 8K9      -0.084100
     30 C28         -3.1190     1.6390    -0.0410 ca         1 8K9      -0.226000
     31 C29         -4.4850     1.7120     0.2150 ca         1 8K9      -0.093000
     32 C           -7.5110     0.1790    -0.9220 c3         1 8K9      -0.081100
     33 H1          -6.7730    -1.4200     1.2400 hc         1 8K9       0.034033
     34 H2          -6.6560    -0.1220     2.4270 hc         1 8K9       0.034033
     35 H3          -8.1980    -0.4890     1.6520 hc         1 8K9       0.034033
     36 H4          -6.7310     2.2980     1.6960 hc         1 8K9       0.038700
     37 H5          -7.0140     2.7110     0.0170 hc         1 8K9       0.038700
     38 H6          -9.1030     1.4860     1.8950 hc         1 8K9       0.031367
     39 H7          -9.0020     3.1550     1.3610 hc         1 8K9       0.031367
     40 H8          -9.3770     1.8900     0.2030 hc         1 8K9       0.031367
     41 H9          -5.2690    -1.4930    -0.3080 ha         1 8K9       0.131000
     42 H10         -4.2240    -3.3530     0.0790 hc         1 8K9       0.033367
     43 H11         -4.5290    -3.0130    -1.6250 hc         1 8K9       0.033367
     44 H12         -3.2670    -4.1430    -1.1640 hc         1 8K9       0.033367
     45 H13          4.8800     1.0170     2.1670 h1         1 8K9       0.069200
     46 H14          6.5630     0.6780     1.8130 h1         1 8K9       0.069200
     47 H15          4.4640    -3.5880     1.6880 ha         1 8K9       0.159000
     48 H17          4.2400    -3.8460    -0.7580 ha         1 8K9       0.135000
     49 H18          4.6780    -1.8870    -2.2490 ha         1 8K9       0.142000
     50 H20          5.6530     0.2550    -2.4860 hc         1 8K9       0.073700
     51 H21          7.2440     1.1570    -0.7610 hc         1 8K9       0.056700
     52 H22          6.3820     2.4630    -1.5670 hc         1 8K9       0.056700
     53 H23          6.2690     2.7690     0.9150 hc         1 8K9       0.066700
     54 H24          3.8310     2.9380     1.1460 h1         1 8K9       0.039700
     55 H25          4.4080     3.5900    -0.3880 h1         1 8K9       0.039700
     56 H26          4.0770     2.1380    -2.4490 h1         1 8K9       0.044200
     57 H27          3.2460     0.6000    -2.2340 h1         1 8K9       0.044200
     58 H29          1.7900     2.7580     0.3390 h1         1 8K9       0.044700
     59 H30          1.8460     2.8790    -1.4190 h1         1 8K9       0.044700
     60 H31          1.1200     0.5690    -1.6760 h1         1 8K9       0.043700
     61 H32          2.3940     0.1450     0.3990 ho         1 8K9       0.431000
     62 H33         -0.4640     1.8060     0.6080 h1         1 8K9       0.036700
     63 H34         -0.5960     2.2680    -1.0990 h1         1 8K9       0.036700
     64 H35         -1.6990    -3.0060    -2.5760 hc         1 8K9       0.033367
     65 H36         -2.8950    -1.7930    -3.0230 hc         1 8K9       0.033367
     66 H37         -1.3170    -1.2950    -2.4070 hc         1 8K9       0.033367
     67 H38         -1.2620    -3.5200    -0.1600 hc         1 8K9       0.049700
     68 H39         -0.7010    -1.8720    -0.0120 hc         1 8K9       0.049700
     69 H40         -1.1560    -2.8210     2.2100 hc         1 8K9       0.029700
     70 H41         -2.2600    -1.4850     1.9070 hc         1 8K9       0.029700
     71 H42         -2.8300    -3.1450     1.7870 hc         1 8K9       0.029700
     72 H43         -2.5350     2.5460     0.0400 ha         1 8K9       0.128000
     73 H44         -4.8900     2.6760     0.4880 ha         1 8K9       0.127000
     74 H45         -7.3500     0.9190    -1.7080 hc         1 8K9       0.034033
     75 H46         -7.1520    -0.7820    -1.2920 hc         1 8K9       0.034033
     76 H47         -8.5870     0.0800    -0.7710 hc         1 8K9       0.034033
     77 O           -1.2020     0.3360    -0.6530 os         1 8K9      -0.311900
     78 N            3.3820     1.7330    -0.4830 n3         1 8K9      -0.751600
     79 O1           5.1780    -1.3310     2.8140 o          1 8K9      -0.647500
@<TRIPOS>BOND
     1     1     2 1   
     2     1     3 1   
     3     1     5 1   
     4     1    32 1   
     5     2    33 1   
     6     2    34 1   
     7     2    35 1   
     8     3     4 1   
     9     3    36 1   
    10     3    37 1   
    11     4    38 1   
    12     4    39 1   
    13     4    40 1   
    14     5     6 ar  
    15     5    31 ar  
    16     6     7 ar  
    17     6    41 1   
    18     7     8 1   
    19     7    26 ar  
    20     8     9 1   
    21     8    27 1   
    22     8    28 1   
    23     9    42 1   
    24     9    43 1   
    25     9    44 1   
    26    10    11 1   
    27    10    13 1   
    28    10    79 2   
    29    11    12 1   
    30    11    16 1   
    31    12    19 1   
    32    12    45 1   
    33    12    46 1   
    34    13    14 2   
    35    13    47 1   
    36    14    15 1   
    37    14    48 1   
    38    15    16 2   
    39    15    49 1   
    40    16    17 1   
    41    17    18 1   
    42    17    21 1   
    43    17    50 1   
    44    18    19 1   
    45    18    51 1   
    46    18    52 1   
    47    19    20 1   
    48    19    53 1   
    49    20    54 1   
    50    20    55 1   
    51    20    78 1   
    52    21    56 1   
    53    21    57 1   
    54    21    78 1   
    55    22    23 1   
    56    22    58 1   
    57    22    59 1   
    58    22    78 1   
    59    23    24 1   
    60    23    25 1   
    61    23    60 1   
    62    24    61 1   
    63    25    62 1   
    64    25    63 1   
    65    25    77 1   
    66    26    30 ar  
    67    26    77 1   
    68    27    64 1   
    69    27    65 1   
    70    27    66 1   
    71    28    29 1   
    72    28    67 1   
    73    28    68 1   
    74    29    69 1   
    75    29    70 1   
    76    29    71 1   
    77    30    31 ar  
    78    30    72 1   
    79    31    73 1   
    80    32    74 1   
    81    32    75 1   
    82    32    76 1   
@<TRIPOS>SUBSTRUCTURE
     1 8K9         1 TEMP              0 ****  ****    0 ROOT
