@<TRIPOS>MOLECULE
8KA
   62    67     1     0     0
SMALL
abcg2


@<TRIPOS>ATOM
      1 N14         -1.4190    -2.7520     0.5270 nj         1 8KA      -0.417800
      2 C13         -2.3010    -1.8030     0.8490 c          1 8KA       0.618100
      3 C18         -0.7760    -3.7130     1.4040 cy         1 8KA       0.081000
      4 C17          0.0490    -4.1950     0.2000 cy         1 8KA       0.131300
      5 C16         -0.5530    -3.0220    -0.6130 cy         1 8KA       0.081000
      6 C20          0.0960     0.0850     1.0020 ca         1 8KA      -0.114500
      7 C21          1.4420    -0.2340     0.9500 ca         1 8KA      -0.100000
      8 C22          2.1450    -0.1900    -0.2530 cp         1 8KA      -0.041000
      9 C23          1.4490     0.2030    -1.3930 ca         1 8KA      -0.100000
     10 C24          0.0950     0.5000    -1.3370 ca         1 8KA      -0.114500
     11 C11         -0.6210     0.4400    -0.1420 ca         1 8KA      -0.065300
     12 C12         -2.7080    -0.8400    -0.2430 c3         1 8KA      -0.147400
     13 C27          5.8190    -0.1850    -1.1340 ca         1 8KA      -0.154000
     14 C1          -2.1420     0.6010    -0.0930 c6         1 8KA       0.027300
     15 C2          -4.0520     3.6500     0.1930 c6         1 8KA       0.174300
     16 C3          -2.6810     1.4650    -1.2650 c6         1 8KA      -0.049700
     17 C4          -2.6060     1.3010     1.2100 c6         1 8KA      -0.049700
     18 C5          -2.1050     2.8850    -1.2000 c6         1 8KA      -0.068650
     19 C6          -2.0260     2.7180     1.2810 c6         1 8KA      -0.068650
     20 C7          -2.5300     3.5560     0.1070 c6         1 8KA      -0.074700
     21 C8          -4.1320     1.4090     1.2640 c6         1 8KA      -0.068650
     22 C9          -4.6430     2.2410     0.0880 c6         1 8KA      -0.074700
     23 C10         -4.2090     1.5860    -1.2220 c6         1 8KA      -0.068650
     24 O15         -2.7780    -1.7490     1.9800 o          1 8KA      -0.616100
     25 O19          1.4220    -4.1840     0.4390 oh         1 8KA      -0.643000
     26 C25          3.5690    -0.5690    -0.3180 cp         1 8KA      -0.052000
     27 C26          4.4810     0.1750    -1.0670 ca         1 8KA      -0.076000
     28 C28          6.2380    -1.3040    -0.4410 ca         1 8KA       0.171000
     29 C29          5.3660    -2.0690     0.3100 ca         1 8KA      -0.154000
     30 C30          4.0320    -1.6960     0.3640 ca         1 8KA      -0.076000
     31 F31          7.5310    -1.6610    -0.5010 f          1 8KA      -0.179000
     32 O32         -4.5100     4.5140    -0.8270 oh         1 8KA      -0.660000
     33 H52         -0.1690    -3.2420     2.1830 h1         1 8KA       0.065950
     34 H51         -1.4470    -4.4410     1.8630 h1         1 8KA       0.065950
     35 H50         -0.2920    -5.1650    -0.1760 h1         1 8KA       0.049700
     36 H49         -1.0780    -3.2900    -1.5320 h1         1 8KA       0.065950
     37 H48          0.1670    -2.2270    -0.8160 h1         1 8KA       0.065950
     38 H55          1.9530    -0.5080     1.8650 ha         1 8KA       0.116000
     39 H56          1.9570     0.2450    -2.3480 ha         1 8KA       0.116000
     40 H57         -0.3950     0.7730    -2.2620 ha         1 8KA       0.119500
     41 H46         -2.4080    -1.2170    -1.2240 hc         1 8KA       0.062700
     42 H47         -3.7980    -0.8230    -0.2400 hc         1 8KA       0.062700
     43 H59          6.5210     0.4000    -1.7120 ha         1 8KA       0.132500
     44 H33         -4.3220     4.0620     1.1800 h1         1 8KA       0.031700
     45 H34         -2.4050     1.0030    -2.2180 hc         1 8KA       0.057700
     46 H35         -2.2790     0.7390     2.0850 hc         1 8KA       0.057700
     47 H36         -1.0150     2.8760    -1.2660 hc         1 8KA       0.047325
     48 H37         -2.4580     3.4560    -2.0630 hc         1 8KA       0.047325
     49 H38         -2.3230     3.1770     2.2300 hc         1 8KA       0.047325
     50 H39         -0.9330     2.6970     1.2810 hc         1 8KA       0.047325
     51 H40         -2.1050     4.5630     0.1670 hc         1 8KA       0.054200
     52 H42         -4.5990     0.4230     1.2710 hc         1 8KA       0.047325
     53 H41         -4.4160     1.8830     2.2090 hc         1 8KA       0.047325
     54 H43         -5.7370     2.3020     0.1330 hc         1 8KA       0.054200
     55 H44         -4.5380     2.1840    -2.0760 hc         1 8KA       0.047325
     56 H45         -4.6980     0.6160    -1.3420 hc         1 8KA       0.047325
     57 H53          1.8750    -4.4530    -0.3650 ho         1 8KA       0.451000
     58 H58          4.1510     1.0610    -1.5930 ha         1 8KA       0.125000
     59 H60          5.7180    -2.9500     0.8320 ha         1 8KA       0.132500
     60 H61          3.3360    -2.3090     0.9210 ha         1 8KA       0.125000
     61 H62         -5.4710     4.4830    -0.8370 ho         1 8KA       0.439000
     62 H54         -0.3970     0.0420     1.9640 ha         1 8KA       0.119500
@<TRIPOS>BOND
     1     1     2 1   
     2     1     3 1   
     3     1     5 1   
     4     2    12 1   
     5     2    24 2   
     6     3     4 1   
     7     3    33 1   
     8     3    34 1   
     9     4     5 1   
    10     4    25 1   
    11     4    35 1   
    12     5    36 1   
    13     5    37 1   
    14     6     7 ar  
    15     6    11 ar  
    16     6    62 1   
    17     7     8 ar  
    18     7    38 1   
    19     8     9 ar  
    20     8    26 1   
    21     9    10 ar  
    22     9    39 1   
    23    10    11 ar  
    24    10    40 1   
    25    11    14 1   
    26    12    14 1   
    27    12    41 1   
    28    12    42 1   
    29    13    27 ar  
    30    13    28 ar  
    31    13    43 1   
    32    14    16 1   
    33    14    17 1   
    34    15    20 1   
    35    15    22 1   
    36    15    32 1   
    37    15    44 1   
    38    16    18 1   
    39    16    23 1   
    40    16    45 1   
    41    17    19 1   
    42    17    21 1   
    43    17    46 1   
    44    18    20 1   
    45    18    47 1   
    46    18    48 1   
    47    19    20 1   
    48    19    49 1   
    49    19    50 1   
    50    20    51 1   
    51    21    22 1   
    52    21    52 1   
    53    21    53 1   
    54    22    23 1   
    55    22    54 1   
    56    23    55 1   
    57    23    56 1   
    58    25    57 1   
    59    26    27 ar  
    60    26    30 ar  
    61    27    58 1   
    62    28    29 ar  
    63    28    31 1   
    64    29    30 ar  
    65    29    59 1   
    66    30    60 1   
    67    32    61 1   
@<TRIPOS>SUBSTRUCTURE
     1 8KA         1 TEMP              0 ****  ****    0 ROOT
