@<TRIPOS>MOLECULE
8KA
   62    67     1     0     0
SMALL
No Charge or Current Charge


@<TRIPOS>ATOM
      1 N14         -1.2320    -2.8750    -0.1920 nj         1 8KA      -0.417800
      2 C13         -2.1100    -2.0210     0.5580 c          1 8KA       0.618100
      3 C18         -1.7580    -4.2310     0.1910 cy         1 8KA       0.081000
      4 C17         -0.2780    -4.5880     0.5570 cy         1 8KA       0.131300
      5 C16         -0.0800    -3.0480     0.7600 cy         1 8KA       0.081000
      6 C20          0.2190     0.2620     0.9100 ca         1 8KA      -0.114500
      7 C21          1.6050     0.0620     0.7990 ca         1 8KA      -0.100000
      8 C22          2.2290    -0.0860    -0.4600 cp         1 8KA      -0.041000
      9 C23          1.4020    -0.0350    -1.6040 ca         1 8KA      -0.100000
     10 C24          0.0160     0.1690    -1.4970 ca         1 8KA      -0.114500
     11 C11         -0.6070     0.3500    -0.2380 ca         1 8KA      -0.065300
     12 C12         -2.7350    -0.9400    -0.3430 c3         1 8KA      -0.147400
     13 C27          5.8290     0.0160    -1.7720 ca         1 8KA      -0.154000
     14 C1          -2.1660     0.5200    -0.1370 c6         1 8KA       0.027300
     15 C2          -3.8080     4.0320     0.3550 c6         1 8KA       0.174300
     16 C3          -2.7280     1.4830    -1.2620 c6         1 8KA      -0.049700
     17 C4          -2.6430     1.1900     1.2220 c6         1 8KA      -0.049700
     18 C5          -2.0590     2.9030    -1.1420 c6         1 8KA      -0.068650
     19 C6          -1.9920     2.6210     1.3910 c6         1 8KA      -0.068650
     20 C7          -2.3320     3.6100     0.2300 c6         1 8KA      -0.074700
     21 C8          -4.2090     1.2810     1.3100 c6         1 8KA      -0.068650
     22 C9          -4.7700     2.1260     0.1460 c6         1 8KA      -0.074700
     23 C10         -4.2950     1.5810    -1.2180 c6         1 8KA      -0.068650
     24 O15         -2.4620    -2.0360     1.7360 o          1 8KA      -0.616100
     25 O19         -0.0900    -5.4160     1.7020 oh         1 8KA      -0.643000
     26 C25          3.7040    -0.3130    -0.5770 cp         1 8KA      -0.052000
     27 C26          4.4430     0.2290    -1.6610 ca         1 8KA      -0.076000
     28 C28          6.4990    -0.7440    -0.8030 ca         1 8KA       0.171000
     29 C29          5.7930    -1.2920     0.2770 ca         1 8KA      -0.154000
     30 C30          4.4070    -1.0780     0.3900 ca         1 8KA      -0.076000
     31 F31          7.8290    -0.9490    -0.9100 f          1 8KA      -0.179000
     32 O32         -4.2150     4.9410    -0.6740 oh         1 8KA      -0.660000
     33 H52         -2.4500    -4.2930     1.0390 h1         1 8KA       0.065950
     34 H51         -2.1510    -4.7980    -0.6600 h1         1 8KA       0.065950
     35 H50          0.2860    -4.9830    -0.2970 h1         1 8KA       0.049700
     36 H49          0.8670    -2.6700     0.3610 h1         1 8KA       0.065950
     37 H48         -0.2150    -2.7130     1.7950 h1         1 8KA       0.065950
     38 H55          2.2020     0.0250     1.7070 ha         1 8KA       0.116000
     39 H56          1.8340    -0.1770    -2.5910 ha         1 8KA       0.116000
     40 H57         -0.5660     0.1630    -2.4120 ha         1 8KA       0.119500
     41 H46         -2.5460    -1.2250    -1.3840 hc         1 8KA       0.062700
     42 H47         -3.8150    -0.9850    -0.1900 hc         1 8KA       0.062700
     43 H59          6.3830     0.4400    -2.6060 ha         1 8KA       0.132500
     44 H33         -4.0080     4.4530     1.3510 h1         1 8KA       0.031700
     45 H34         -2.4840     1.0830    -2.2520 hc         1 8KA       0.057700
     46 H35         -2.3280     0.5720     2.0710 hc         1 8KA       0.057700
     47 H36         -0.9740     2.8120    -1.2800 hc         1 8KA       0.047325
     48 H37         -2.3930     3.5390    -1.9720 hc         1 8KA       0.047325
     49 H38         -2.3070     3.0550     2.3510 hc         1 8KA       0.047325
     50 H39         -0.9020     2.5430     1.4680 hc         1 8KA       0.047325
     51 H40         -1.7000     4.5050     0.3150 hc         1 8KA       0.054200
     52 H42         -4.6750     0.2890     1.3320 hc         1 8KA       0.047325
     53 H41         -4.4900     1.7540     2.2610 hc         1 8KA       0.047325
     54 H43         -5.8630     2.2190     0.1960 hc         1 8KA       0.054200
     55 H44         -4.6390     2.2550    -2.0140 hc         1 8KA       0.047325
     56 H45         -4.7650     0.6130    -1.4310 hc         1 8KA       0.047325
     57 H53          0.8780    -5.5020     1.8520 ho         1 8KA       0.451000
     58 H58          3.9410     0.8310    -2.4140 ha         1 8KA       0.125000
     59 H60          6.3180    -1.8830     1.0240 ha         1 8KA       0.132500
     60 H61          3.8730    -1.5210     1.2270 ha         1 8KA       0.125000
     61 H62         -5.1850     5.0580    -0.5730 ho         1 8KA       0.439000
     62 H54         -0.1940     0.3370     1.9100 ha         1 8KA       0.119500
@<TRIPOS>BOND
     1     1     2 1   
     2     1     3 1   
     3     1     5 1   
     4     2    12 1   
     5     2    24 2   
     6     3     4 1   
     7     3    33 1   
     8     3    34 1   
     9     4     5 1   
    10     4    25 1   
    11     4    35 1   
    12     5    36 1   
    13     5    37 1   
    14     6     7 ar  
    15     6    11 ar  
    16     6    62 1   
    17     7     8 ar  
    18     7    38 1   
    19     8     9 ar  
    20     8    26 1   
    21     9    10 ar  
    22     9    39 1   
    23    10    11 ar  
    24    10    40 1   
    25    11    14 1   
    26    12    14 1   
    27    12    41 1   
    28    12    42 1   
    29    13    27 ar  
    30    13    28 ar  
    31    13    43 1   
    32    14    16 1   
    33    14    17 1   
    34    15    20 1   
    35    15    22 1   
    36    15    32 1   
    37    15    44 1   
    38    16    18 1   
    39    16    23 1   
    40    16    45 1   
    41    17    19 1   
    42    17    21 1   
    43    17    46 1   
    44    18    20 1   
    45    18    47 1   
    46    18    48 1   
    47    19    20 1   
    48    19    49 1   
    49    19    50 1   
    50    20    51 1   
    51    21    22 1   
    52    21    52 1   
    53    21    53 1   
    54    22    23 1   
    55    22    54 1   
    56    23    55 1   
    57    23    56 1   
    58    25    57 1   
    59    26    27 ar  
    60    26    30 ar  
    61    27    58 1   
    62    28    29 ar  
    63    28    31 1   
    64    29    30 ar  
    65    29    59 1   
    66    30    60 1   
    67    32    61 1   
@<TRIPOS>SUBSTRUCTURE
     1 8KA         1 TEMP              0 ****  ****    0 ROOT
