@<TRIPOS>MOLECULE
8KB
   19    19     1     0     0
SMALL
No Charge or Current Charge


@<TRIPOS>ATOM
      1 C4           0.4770     1.1810    -0.5690 c3         1 8KB       0.136600
      2 O            2.6160     0.1290     0.0390 oh         1 8KB      -0.719000
      3 C            1.1860     0.0420     0.2200 c3         1 8KB       0.135300
      4 O1          -0.7360     1.5650     0.1220 os         1 8KB      -0.458000
      5 C3          -1.8980     0.7180    -0.0630 c3         1 8KB       0.161600
      6 C2          -1.6680    -0.7290     0.4680 c3         1 8KB       0.128800
      7 N           -0.7620    -1.5180    -0.4050 n7         1 8KB      -0.884400
      8 C1           0.7000    -1.3920    -0.1600 c3         1 8KB       0.168800
      9 H9           1.1490     2.0480    -0.6190 h1         1 8KB       0.054200
     10 H10          0.2710     0.8660    -1.6010 h1         1 8KB       0.054200
     11 H1           2.9290     0.9120     0.5490 ho         1 8KB       0.505000
     12 H            0.9570     0.1930     1.2840 h1         1 8KB       0.035700
     13 H7          -2.7490     1.1480     0.4820 h1         1 8KB       0.048200
     14 H8          -2.1820     0.6750    -1.1230 h1         1 8KB       0.048200
     15 H5          -1.3090    -0.7010     1.5070 h1         1 8KB       0.036700
     16 H6          -2.6520    -1.2170     0.4880 h1         1 8KB       0.036700
     17 H11         -1.0030    -2.5150    -0.3170 hn         1 8KB       0.422000
     18 H2           1.2440    -1.7270    -1.0540 h1         1 8KB       0.043700
     19 H3           0.9940    -2.0620     0.6590 h1         1 8KB       0.043700
@<TRIPOS>BOND
     1     1     3 1   
     2     1     4 1   
     3     1     9 1   
     4     1    10 1   
     5     2     3 1   
     6     2    11 1   
     7     3     8 1   
     8     3    12 1   
     9     4     5 1   
    10     5     6 1   
    11     5    13 1   
    12     5    14 1   
    13     6     7 1   
    14     6    15 1   
    15     6    16 1   
    16     7     8 1   
    17     7    17 1   
    18     8    18 1   
    19     8    19 1   
@<TRIPOS>SUBSTRUCTURE
     1 8KB         1 TEMP              0 ****  ****    0 ROOT
