@<TRIPOS>MOLECULE
8KB
   19    19     1     0     0
SMALL
abcg2


@<TRIPOS>ATOM
      1 C4           0.4320     1.1470    -0.5300 c3         1 8KB       0.136600
      2 O            2.5560     0.0590    -0.0550 oh         1 8KB      -0.719000
      3 C            1.1750     0.0510     0.2460 c3         1 8KB       0.135300
      4 O1          -0.7540     1.5470     0.1190 os         1 8KB      -0.458000
      5 C3          -1.8630     0.6940    -0.0390 c3         1 8KB       0.161600
      6 C2          -1.6440    -0.7370     0.4260 c3         1 8KB       0.128800
      7 N           -0.7070    -1.4330    -0.4370 n7         1 8KB      -0.884400
      8 C1           0.6880    -1.3700    -0.0490 c3         1 8KB       0.168800
      9 H9           1.0700     2.0360    -0.5570 h1         1 8KB       0.054200
     10 H10          0.2470     0.8450    -1.5690 h1         1 8KB       0.054200
     11 H1           2.9450     0.8520     0.3250 ho         1 8KB       0.505000
     12 H            1.0190     0.2730     1.3110 h1         1 8KB       0.035700
     13 H7          -2.6730     1.1450     0.5390 h1         1 8KB       0.048200
     14 H8          -2.1800     0.6630    -1.0900 h1         1 8KB       0.048200
     15 H5          -1.3600    -0.7560     1.4890 h1         1 8KB       0.036700
     16 H6          -2.6110    -1.2400     0.3600 h1         1 8KB       0.036700
     17 H11         -0.9730    -2.4030    -0.5250 hn         1 8KB       0.422000
     18 H2           1.2780    -1.7590    -0.8840 h1         1 8KB       0.043700
     19 H3           0.9190    -1.9990     0.8240 h1         1 8KB       0.043700
@<TRIPOS>BOND
     1     1     3 1   
     2     1     4 1   
     3     1     9 1   
     4     1    10 1   
     5     2     3 1   
     6     2    11 1   
     7     3     8 1   
     8     3    12 1   
     9     4     5 1   
    10     5     6 1   
    11     5    13 1   
    12     5    14 1   
    13     6     7 1   
    14     6    15 1   
    15     6    16 1   
    16     7     8 1   
    17     7    17 1   
    18     8    18 1   
    19     8    19 1   
@<TRIPOS>SUBSTRUCTURE
     1 8KB         1 TEMP              0 ****  ****    0 ROOT
