@<TRIPOS>MOLECULE
8KC
   66    68     1     0     0
SMALL
No Charge or Current Charge


@<TRIPOS>ATOM
      1 C21        -45.2580    62.0110   -21.1260 c3         1 8KC      -0.088100
      2 C20        -46.7980    61.9960   -21.0840 c3         1 8KC      -0.065400
      3 C19        -47.4360    63.1800   -21.8500 c3         1 8KC      -0.080400
      4 C18        -48.9840    63.1430   -21.9130 c3         1 8KC      -0.060400
      5 C17        -49.7050    63.2270   -20.5410 c3         1 8KC       0.104500
      6 C10        -45.9000    63.5360   -15.7550 ca         1 8KC      -0.074800
      7 C11        -44.9210    64.5330   -15.6120 ca         1 8KC      -0.017000
      8 C12        -43.5960    64.1250   -15.3470 ca         1 8KC      -0.177000
      9 C13        -43.2800    62.7520   -15.2290 ca         1 8KC      -0.114000
     10 C14        -44.2890    61.7760   -15.3710 ca         1 8KC      -0.157000
     11 C16        -49.3140    64.5360   -19.7630 c          1 8KC       0.574100
     12 C27        -53.5130    62.9750   -19.8980 c3         1 8KC      -0.046400
     13 C28        -54.4690    63.0000   -18.6830 c3         1 8KC      -0.042100
     14 C29        -55.9260    63.1500   -19.1010 ca         1 8KC      -0.039300
     15 C30        -56.6880    62.0130   -19.4350 ca         1 8KC      -0.112000
     16 C31        -58.0320    62.1490   -19.8240 ca         1 8KC      -0.122000
     17 C02        -46.7220    66.0000   -18.1250 c          1 8KC       0.717000
     18 C04        -48.1040    65.4020   -17.7020 c3         1 8KC      -0.022300
     19 C05        -48.1090    64.9020   -16.2370 c3         1 8KC      -0.006200
     20 C06        -47.3100    63.6410   -16.0130 cc         1 8KC      -0.117400
     21 C07        -47.7930    62.3340   -16.0210 cd         1 8KC      -0.168100
     22 C09        -45.5960    62.2090   -15.6340 ca         1 8KC      -0.065200
     23 C23        -52.0110    62.8930   -19.5150 c3         1 8KC       0.036500
     24 C24        -51.6670    61.5930   -18.6730 c          1 8KC       0.716000
     25 C32        -58.6210    63.4230   -19.8830 ca         1 8KC      -0.142000
     26 C33        -57.8660    64.5610   -19.5540 ca         1 8KC      -0.122000
     27 C34        -56.5220    64.4250   -19.1650 ca         1 8KC      -0.112000
     28 N08        -46.7260    61.4300   -15.7940 na         1 8KC      -0.234700
     29 N15        -48.5650    64.3350   -18.6220 ns         1 8KC      -0.438900
     30 N22        -51.1820    63.0820   -20.7580 n7         1 8KC      -0.838400
     31 O25        -52.0910    60.5040   -19.0450 o          1 8KC      -0.736000
     32 O26        -50.9750    61.7260   -17.6720 o          1 8KC      -0.736000
     33 O35        -49.6680    65.6580   -20.1180 o          1 8KC      -0.677100
     34 H211       -44.8530    61.1580   -20.5700 hc         1 8KC       0.025033
     35 H213       -44.8970    61.9500   -22.1600 hc         1 8KC       0.025033
     36 H212       -44.8670    62.9310   -20.6750 hc         1 8KC       0.025033
     37 H202       -47.1150    62.0150   -20.0350 hc         1 8KC       0.034200
     38 H201       -47.1560    61.0510   -21.5110 hc         1 8KC       0.034200
     39 H192       -47.0520    63.1800   -22.8780 hc         1 8KC       0.047700
     40 H191       -47.1070    64.1240   -21.4000 hc         1 8KC       0.047700
     41 H182       -49.3240    63.9730   -22.5460 hc         1 8KC       0.030700
     42 H181       -49.2890    62.2200   -22.4220 hc         1 8KC       0.030700
     43 H171       -49.3500    62.3810   -19.9370 h1         1 8KC       0.084700
     44 H131       -42.2570    62.4460   -15.0240 ha         1 8KC       0.076000
     45 H141       -44.0580    60.7180   -15.2760 ha         1 8KC       0.085000
     46 H272       -53.6820    63.8860   -20.4860 hc         1 8KC       0.026200
     47 H271       -53.7750    62.1300   -20.5470 hc         1 8KC       0.026200
     48 H282       -54.3450    62.0810   -18.0980 hc         1 8KC       0.064200
     49 H281       -54.1820    63.8240   -18.0180 hc         1 8KC       0.064200
     50 H301       -56.2380    61.0230   -19.3930 ha         1 8KC       0.118000
     51 H311       -58.6160    61.2680   -20.0800 ha         1 8KC       0.093000
     52 H041       -48.8210    66.2300   -17.7600 h1         1 8KC       0.057700
     53 H051       -47.7400    65.7000   -15.5810 hc         1 8KC       0.046700
     54 H052       -49.1490    64.7240   -15.9350 hc         1 8KC       0.046700
     55 H071       -48.8130    61.9860   -16.1770 h4         1 8KC       0.261000
     56 H231       -51.8200    63.7440   -18.8460 h1         1 8KC       0.028700
     57 H321       -59.6610    63.5290   -20.1850 ha         1 8KC       0.088000
     58 H331       -58.3200    65.5480   -19.6010 ha         1 8KC       0.093000
     59 H341       -55.9430    65.3110   -18.9140 ha         1 8KC       0.118000
     60 H081       -46.7800    60.4160   -15.7490 hn         1 8KC       0.334000
     61 H151       -48.3060    63.3810   -18.4050 hn         1 8KC       0.311500
     62 H221       -51.5050    63.9330   -21.2330 hn         1 8KC       0.380000
     63 O01        -45.9940    65.3700   -18.8820 o          1 8KC      -0.741500
     64 H111       -45.1740    65.5870   -15.6990 ha         1 8KC       0.157000
     65 O03        -46.4580    67.1350   -17.7490 o          1 8KC      -0.741500
     66 H121       -42.8140    64.8730   -15.2320 ha         1 8KC       0.090000
@<TRIPOS>BOND
     1     1     2 1   
     2     1    34 1   
     3     1    35 1   
     4     1    36 1   
     5     2     3 1   
     6     2    37 1   
     7     2    38 1   
     8     3     4 1   
     9     3    39 1   
    10     3    40 1   
    11     4     5 1   
    12     4    41 1   
    13     4    42 1   
    14     5    11 1   
    15     5    30 1   
    16     5    43 1   
    17     6     7 ar  
    18     6    20 1   
    19     6    22 ar  
    20     7     8 ar  
    21     7    64 1   
    22     8     9 ar  
    23     8    66 1   
    24     9    10 ar  
    25     9    44 1   
    26    10    22 ar  
    27    10    45 1   
    28    11    29 1   
    29    11    33 2   
    30    12    13 1   
    31    12    23 1   
    32    12    46 1   
    33    12    47 1   
    34    13    14 1   
    35    13    48 1   
    36    13    49 1   
    37    14    15 ar  
    38    14    27 ar  
    39    15    16 ar  
    40    15    50 1   
    41    16    25 ar  
    42    16    51 1   
    43    17    18 1   
    44    17    63 1   
    45    17    65 1   
    46    18    19 1   
    47    18    29 1   
    48    18    52 1   
    49    19    20 1   
    50    19    53 1   
    51    19    54 1   
    52    20    21 2   
    53    21    28 1   
    54    21    55 1   
    55    22    28 1   
    56    23    24 1   
    57    23    30 1   
    58    23    56 1   
    59    24    31 1   
    60    24    32 1   
    61    25    26 ar  
    62    25    57 1   
    63    26    27 ar  
    64    26    58 1   
    65    27    59 1   
    66    28    60 1   
    67    29    61 1   
    68    30    62 1   
@<TRIPOS>SUBSTRUCTURE
     1 8KC         1 TEMP              0 ****  ****    0 ROOT
