@<TRIPOS>MOLECULE
8KC
   66    68     1     0     0
SMALL
bcc


@<TRIPOS>ATOM
      1 C21        -45.2590    62.2740   -21.1510 c3         1 8KC      -0.088100
      2 C20        -46.7780    62.1780   -21.1070 c3         1 8KC      -0.065400
      3 C19        -47.4540    63.3540   -21.8040 c3         1 8KC      -0.080400
      4 C18        -48.9780    63.2800   -21.8430 c3         1 8KC      -0.060400
      5 C17        -49.6590    63.3000   -20.4740 c3         1 8KC       0.104500
      6 C10        -46.0740    63.3850   -15.8670 ca         1 8KC      -0.074800
      7 C11        -44.9520    64.2210   -15.7980 ca         1 8KC      -0.035000
      8 C12        -43.7060    63.6570   -15.6050 ca         1 8KC      -0.195000
      9 C13        -43.5500    62.2670   -15.4780 ca         1 8KC      -0.132000
     10 C14        -44.6360    61.4160   -15.5370 ca         1 8KC      -0.175000
     11 C16        -49.2920    64.5830   -19.7220 c          1 8KC       0.641100
     12 C27        -53.3500    63.0200   -19.7940 c3         1 8KC      -0.046400
     13 C28        -54.3170    63.2390   -18.6300 c3         1 8KC      -0.042100
     14 C29        -55.7530    63.1540   -19.0660 ca         1 8KC      -0.039300
     15 C30        -56.5150    62.0160   -18.8170 ca         1 8KC      -0.130000
     16 C31        -57.8340    61.9300   -19.2450 ca         1 8KC      -0.140000
     17 C02        -46.7640    66.0250   -18.0690 c          1 8KC       0.927600
     18 C04        -48.1510    65.4340   -17.7030 c3         1 8KC      -0.022300
     19 C05        -48.2030    64.9030   -16.2580 c3         1 8KC      -0.006200
     20 C06        -47.4820    63.6110   -16.0440 cc         1 8KC      -0.117400
     21 C07        -48.0680    62.3740   -16.0070 cd         1 8KC      -0.118100
     22 C09        -45.8930    61.9900   -15.7290 ca         1 8KC      -0.065200
     23 C23        -51.8800    63.2170   -19.4180 c3         1 8KC       0.036500
     24 C24        -51.4570    62.1410   -18.3840 c          1 8KC       0.926600
     25 C32        -58.4150    62.9870   -19.9320 ca         1 8KC      -0.160000
     26 C33        -57.6660    64.1290   -20.1870 ca         1 8KC      -0.140000
     27 C34        -56.3490    64.2090   -19.7570 ca         1 8KC      -0.130000
     28 N08        -47.1210    61.4070   -15.8190 na         1 8KC      -0.184400
     29 N15        -48.6020    64.3960   -18.5940 ns         1 8KC      -0.505900
     30 N22        -51.0910    63.1500   -20.6410 n7         1 8KC      -0.783200
     31 O25        -51.2760    60.9850   -18.8080 o          1 8KC      -0.841300
     32 O26        -51.3760    62.5260   -17.1970 o          1 8KC      -0.841300
     33 O35        -49.6470    65.6840   -20.1330 o          1 8KC      -0.677100
     34 H211       -44.7900    61.4220   -20.6570 hc         1 8KC       0.025033
     35 H213       -44.8940    62.3050   -22.1790 hc         1 8KC       0.025033
     36 H212       -44.9110    63.1780   -20.6490 hc         1 8KC       0.025033
     37 H202       -47.0980    62.1190   -20.0630 hc         1 8KC       0.034200
     38 H201       -47.1020    61.2430   -21.5750 hc         1 8KC       0.034200
     39 H192       -47.0890    63.4070   -22.8340 hc         1 8KC       0.047700
     40 H191       -47.1330    64.2840   -21.3250 hc         1 8KC       0.047700
     41 H182       -49.3640    64.1150   -22.4370 hc         1 8KC       0.030700
     42 H181       -49.2900    62.3650   -22.3540 hc         1 8KC       0.030700
     43 H171       -49.3050    62.4370   -19.9030 h1         1 8KC       0.084700
     44 H131       -42.5590    61.8540   -15.3310 ha         1 8KC       0.094000
     45 H141       -44.5170    60.3440   -15.4390 ha         1 8KC       0.103000
     46 H272       -53.6060    63.7230   -20.5950 hc         1 8KC       0.026200
     47 H271       -53.4850    62.0160   -20.2080 hc         1 8KC       0.026200
     48 H282       -54.1320    62.5030   -17.8450 hc         1 8KC       0.064200
     49 H281       -54.1230    64.2210   -18.1890 hc         1 8KC       0.064200
     50 H301       -56.0710    61.1860   -18.2790 ha         1 8KC       0.136000
     51 H311       -58.4100    61.0360   -19.0380 ha         1 8KC       0.111000
     52 H041       -48.8680    66.2580   -17.7630 h1         1 8KC       0.057700
     53 H051       -47.8120    65.6780   -15.5980 hc         1 8KC       0.046700
     54 H052       -49.2530    64.7640   -15.9870 hc         1 8KC       0.046700
     55 H071       -49.1130    62.1180   -16.1070 h4         1 8KC       0.211000
     56 H231       -51.7970    64.2000   -18.9270 h1         1 8KC       0.028700
     57 H321       -59.4430    62.9230   -20.2640 ha         1 8KC       0.106000
     58 H331       -58.1100    64.9620   -20.7190 ha         1 8KC       0.111000
     59 H341       -55.7740    65.1070   -19.9570 ha         1 8KC       0.136000
     60 H081       -47.3070    60.4200   -15.7560 hn         1 8KC       0.283700
     61 H151       -48.3250    63.4540   -18.3660 hn         1 8KC       0.311500
     62 H221       -51.4210    63.8710   -21.2730 hn         1 8KC       0.324800
     63 O01        -46.1520    65.5360   -19.0330 o          1 8KC      -0.846800
     64 H111       -45.0620    65.2920   -15.9060 ha         1 8KC       0.175000
     65 O03        -46.3980    66.9700   -17.3390 o          1 8KC      -0.846800
     66 H121       -42.8330    64.2940   -15.5530 ha         1 8KC       0.108000
@<TRIPOS>BOND
     1     1     2 1   
     2     1    34 1   
     3     1    35 1   
     4     1    36 1   
     5     2     3 1   
     6     2    37 1   
     7     2    38 1   
     8     3     4 1   
     9     3    39 1   
    10     3    40 1   
    11     4     5 1   
    12     4    41 1   
    13     4    42 1   
    14     5    11 1   
    15     5    30 1   
    16     5    43 1   
    17     6     7 ar  
    18     6    20 1   
    19     6    22 ar  
    20     7     8 ar  
    21     7    64 1   
    22     8     9 ar  
    23     8    66 1   
    24     9    10 ar  
    25     9    44 1   
    26    10    22 ar  
    27    10    45 1   
    28    11    29 1   
    29    11    33 2   
    30    12    13 1   
    31    12    23 1   
    32    12    46 1   
    33    12    47 1   
    34    13    14 1   
    35    13    48 1   
    36    13    49 1   
    37    14    15 ar  
    38    14    27 ar  
    39    15    16 ar  
    40    15    50 1   
    41    16    25 ar  
    42    16    51 1   
    43    17    18 1   
    44    17    63 1   
    45    17    65 1   
    46    18    19 1   
    47    18    29 1   
    48    18    52 1   
    49    19    20 1   
    50    19    53 1   
    51    19    54 1   
    52    20    21 2   
    53    21    28 1   
    54    21    55 1   
    55    22    28 1   
    56    23    24 1   
    57    23    30 1   
    58    23    56 1   
    59    24    31 1   
    60    24    32 1   
    61    25    26 ar  
    62    25    57 1   
    63    26    27 ar  
    64    26    58 1   
    65    27    59 1   
    66    28    60 1   
    67    29    61 1   
    68    30    62 1   
@<TRIPOS>SUBSTRUCTURE
     1 8KC         1 TEMP              0 ****  ****    0 ROOT
