@<TRIPOS>MOLECULE
8KD
   55    59     1     0     0
SMALL
abcg2


@<TRIPOS>ATOM
      1 C13          0.5380    -2.7180    -0.4690 ca         1 8KD      -0.111000
      2 C18          1.5990    -3.5170    -0.8750 ca         1 8KD      -0.116500
      3 C15          1.3970     1.2640     0.4270 c          1 8KD       0.622100
      4 C19          2.8210    -3.4470    -0.2190 ca         1 8KD      -0.120000
      5 C20          2.9690    -2.5720     0.8480 ca         1 8KD      -0.116500
      6 C21          1.9080    -1.7680     1.2420 ca         1 8KD      -0.111000
      7 C22          3.9050     1.2390     0.6120 cy         1 8KD       0.083500
      8 C23          4.5590     0.4290    -0.5220 cy         1 8KD       0.129300
      9 C24          3.1750     0.3840    -1.2170 cy         1 8KD       0.083500
     10 C11         -0.4640    -0.9550     1.0670 c3         1 8KD      -0.036100
     11 C12          0.2710     0.8790    -0.5020 c3         1 8KD      -0.147400
     12 C1          -1.8490    -0.3440    -1.0250 c6         1 8KD      -0.055200
     13 C2          -0.9530     0.1820     0.1290 c6         1 8KD      -0.006000
     14 C3          -1.8400     1.1530     0.9540 c6         1 8KD      -0.055200
     15 C4          -3.0650     0.4190     1.5170 c6         1 8KD      -0.067900
     16 C5          -3.9220    -0.1340     0.3750 c6         1 8KD      -0.074700
     17 C6          -3.0830    -1.0790    -0.4890 c6         1 8KD      -0.067900
     18 C7          -2.3600     0.8090    -1.8990 c6         1 8KD      -0.067900
     19 C8          -4.4170     1.0060    -0.5130 c6         1 8KD       0.175300
     20 C9          -3.2040     1.7690    -1.0580 c6         1 8KD      -0.074700
     21 C10         -2.3590     2.3130     0.0950 c6         1 8KD      -0.067900
     22 C14          0.6770    -1.8170     0.5880 ca         1 8KD      -0.072300
     23 N16          2.6280     1.0720    -0.0570 nj         1 8KD      -0.421800
     24 O17          1.2300     1.7700     1.5330 o          1 8KD      -0.615100
     25 O26         -5.2840     1.8260     0.2420 oh         1 8KD      -0.657000
     26 H44         -0.4120    -2.8160    -0.9790 ha         1 8KD       0.117000
     27 H45          1.4660    -4.2060    -1.6990 ha         1 8KD       0.111000
     28 H46          3.6460    -4.0750    -0.5310 ha         1 8KD       0.111000
     29 H47          3.9120    -2.5170     1.3790 ha         1 8KD       0.111000
     30 H48          2.0350    -1.0910     2.0790 ha         1 8KD       0.117000
     31 H50          3.9530     0.7950     1.6080 h1         1 8KD       0.063950
     32 H49          4.2430     2.2770     0.6680 h1         1 8KD       0.063950
     33 H51          4.8750    -0.5660    -0.1940 h1         1 8KD       0.048700
     34 H52          3.1250     0.9690    -2.1390 h1         1 8KD       0.063950
     35 H53          2.7610    -0.6110    -1.3910 h1         1 8KD       0.063950
     36 H40         -0.1670    -0.4970     2.0140 hc         1 8KD       0.059200
     37 H41         -1.3000    -1.6090     1.3140 hc         1 8KD       0.059200
     38 H42         -0.0300     1.8060    -0.9950 hc         1 8KD       0.060200
     39 H43          0.6520     0.2450    -1.3060 hc         1 8KD       0.060200
     40 H27         -1.2700    -1.0220    -1.6590 hc         1 8KD       0.062700
     41 H28         -1.2510     1.5520     1.7810 hc         1 8KD       0.062700
     42 H29         -2.7740    -0.3920     2.1900 hc         1 8KD       0.043950
     43 H30         -3.6490     1.1130     2.1260 hc         1 8KD       0.043950
     44 H31         -4.7840    -0.6760     0.7780 hc         1 8KD       0.052700
     45 H33         -3.6750    -1.4360    -1.3390 hc         1 8KD       0.043950
     46 H32         -2.8120    -1.9740     0.0760 hc         1 8KD       0.043950
     47 H34         -1.5420     1.3470    -2.3820 hc         1 8KD       0.043950
     48 H35         -2.9650     0.3940    -2.7130 hc         1 8KD       0.043950
     49 H36         -4.9640     0.5720    -1.3660 h1         1 8KD       0.026700
     50 H37         -3.5530     2.5960    -1.6880 hc         1 8KD       0.052700
     51 H39         -2.9510     2.9860     0.7210 hc         1 8KD       0.043950
     52 H38         -1.5400     2.9210    -0.2950 hc         1 8KD       0.043950
     53 H55         -5.5220     2.5860    -0.2980 ho         1 8KD       0.440000
     54 O25          5.5830     1.1190    -1.1670 oh         1 8KD      -0.638000
     55 H54          5.9630     0.5460    -1.8400 ho         1 8KD       0.449000
@<TRIPOS>BOND
     1     1     2 ar  
     2     1    22 ar  
     3     1    26 1   
     4     2     4 ar  
     5     2    27 1   
     6     3    11 1   
     7     3    23 1   
     8     3    24 2   
     9     4     5 ar  
    10     4    28 1   
    11     5     6 ar  
    12     5    29 1   
    13     6    22 ar  
    14     6    30 1   
    15     7     8 1   
    16     7    23 1   
    17     7    31 1   
    18     7    32 1   
    19     8     9 1   
    20     8    33 1   
    21     8    54 1   
    22     9    23 1   
    23     9    34 1   
    24     9    35 1   
    25    10    13 1   
    26    10    22 1   
    27    10    36 1   
    28    10    37 1   
    29    11    13 1   
    30    11    38 1   
    31    11    39 1   
    32    12    13 1   
    33    12    17 1   
    34    12    18 1   
    35    12    40 1   
    36    13    14 1   
    37    14    15 1   
    38    14    21 1   
    39    14    41 1   
    40    15    16 1   
    41    15    42 1   
    42    15    43 1   
    43    16    17 1   
    44    16    19 1   
    45    16    44 1   
    46    17    45 1   
    47    17    46 1   
    48    18    20 1   
    49    18    47 1   
    50    18    48 1   
    51    19    20 1   
    52    19    25 1   
    53    19    49 1   
    54    20    21 1   
    55    20    50 1   
    56    21    51 1   
    57    21    52 1   
    58    25    53 1   
    59    54    55 1   
@<TRIPOS>SUBSTRUCTURE
     1 8KD         1 TEMP              0 ****  ****    0 ROOT
