@<TRIPOS>MOLECULE
8KD
   55    59     1     0     0
SMALL
No Charge or Current Charge


@<TRIPOS>ATOM
      1 C13         -0.1680    -3.3920    -0.4930 ca         1 8KD      -0.111000
      2 C18          0.6110    -4.3820    -1.1170 ca         1 8KD      -0.116500
      3 C15          1.7030     0.9230     0.2200 c          1 8KD       0.622100
      4 C19          2.0030    -4.4020    -0.9330 ca         1 8KD      -0.120000
      5 C20          2.6140    -3.4390    -0.1150 ca         1 8KD      -0.116500
      6 C21          1.8350    -2.4510     0.5100 ca         1 8KD      -0.111000
      7 C22          3.1720     2.5550    -0.3040 cy         1 8KD       0.083500
      8 C23          4.6000     2.0490     0.0960 cy         1 8KD       0.129300
      9 C24          3.9690     0.6150     0.1760 cy         1 8KD       0.083500
     10 C11         -0.4020    -1.3250     0.9980 c3         1 8KD      -0.036100
     11 C12          0.4870     0.4390    -0.6020 c3         1 8KD      -0.147400
     12 C1          -1.9050    -0.5040    -1.0030 c6         1 8KD      -0.055200
     13 C2          -0.8400    -0.0880     0.0990 c6         1 8KD      -0.006000
     14 C3          -1.5470     1.0300     0.9730 c6         1 8KD      -0.055200
     15 C4          -2.8550     0.4880     1.6390 c6         1 8KD      -0.067900
     16 C5          -3.8700     0.0420     0.5420 c6         1 8KD      -0.074700
     17 C6          -3.2190    -1.0550    -0.3520 c6         1 8KD      -0.067900
     18 C7          -2.3220     0.7170    -1.8930 c6         1 8KD      -0.067900
     19 C8          -4.2570     1.2540    -0.3610 c6         1 8KD       0.175300
     20 C9          -2.9590     1.8290    -1.0080 c6         1 8KD      -0.074700
     21 C10         -1.9450     2.2620     0.0960 c6         1 8KD      -0.067900
     22 C14          0.4400    -2.4060     0.3110 ca         1 8KD      -0.072300
     23 N16          2.8220     1.1330    -0.6510 nj         1 8KD      -0.421800
     24 O17          1.5840     1.0840     1.4330 o          1 8KD      -0.615100
     25 O26         -4.9630     2.2560     0.3830 oh         1 8KD      -0.657000
     26 H44         -1.2450    -3.3970    -0.6350 ha         1 8KD       0.117000
     27 H45          0.1340    -5.1340    -1.7410 ha         1 8KD       0.111000
     28 H46          2.6060    -5.1690    -1.4160 ha         1 8KD       0.111000
     29 H47          3.6910    -3.4600     0.0400 ha         1 8KD       0.111000
     30 H48          2.3180    -1.7210     1.1540 ha         1 8KD       0.117000
     31 H50          2.6250     3.0300     0.5200 h1         1 8KD       0.063950
     32 H49          3.1670     3.2170    -1.1770 h1         1 8KD       0.063950
     33 H51          4.9490     2.4340     1.0610 h1         1 8KD       0.048700
     34 H52          4.5480    -0.1540    -0.3470 h1         1 8KD       0.063950
     35 H53          3.7590     0.2810     1.1980 h1         1 8KD       0.063950
     36 H40          0.1460    -0.9600     1.8730 hc         1 8KD       0.059200
     37 H41         -1.2650    -1.8220     1.4460 hc         1 8KD       0.059200
     38 H42          0.3060     1.2540    -1.3050 hc         1 8KD       0.060200
     39 H43          0.8660    -0.2970    -1.3200 hc         1 8KD       0.060200
     40 H27         -1.4770    -1.2730    -1.6600 hc         1 8KD       0.062700
     41 H28         -0.8790     1.3690     1.7730 hc         1 8KD       0.062700
     42 H29         -2.6420    -0.3410     2.3250 hc         1 8KD       0.043950
     43 H30         -3.3010     1.2690     2.2690 hc         1 8KD       0.043950
     44 H31         -4.7740    -0.3640     1.0170 hc         1 8KD       0.052700
     45 H33         -3.9240    -1.3560    -1.1400 hc         1 8KD       0.043950
     46 H32         -3.0390    -1.9680     0.2270 hc         1 8KD       0.043950
     47 H34         -1.4790     1.1140    -2.4710 hc         1 8KD       0.043950
     48 H35         -3.0480     0.3890    -2.6510 hc         1 8KD       0.043950
     49 H36         -4.9120     0.8880    -1.1660 h1         1 8KD       0.026700
     50 H37         -3.2120     2.6920    -1.6390 hc         1 8KD       0.052700
     51 H39         -2.3890     3.0410     0.7310 hc         1 8KD       0.043950
     52 H38         -1.0620     2.7320    -0.3540 hc         1 8KD       0.043950
     53 H55         -5.1660     2.9800    -0.2480 ho         1 8KD       0.440000
     54 O25          5.6150     2.2290    -0.8920 oh         1 8KD      -0.638000
     55 H54          6.4240     1.7650    -0.5790 ho         1 8KD       0.449000
@<TRIPOS>BOND
     1     1     2 ar  
     2     1    22 ar  
     3     1    26 1   
     4     2     4 ar  
     5     2    27 1   
     6     3    11 1   
     7     3    23 1   
     8     3    24 2   
     9     4     5 ar  
    10     4    28 1   
    11     5     6 ar  
    12     5    29 1   
    13     6    22 ar  
    14     6    30 1   
    15     7     8 1   
    16     7    23 1   
    17     7    31 1   
    18     7    32 1   
    19     8     9 1   
    20     8    33 1   
    21     8    54 1   
    22     9    23 1   
    23     9    34 1   
    24     9    35 1   
    25    10    13 1   
    26    10    22 1   
    27    10    36 1   
    28    10    37 1   
    29    11    13 1   
    30    11    38 1   
    31    11    39 1   
    32    12    13 1   
    33    12    17 1   
    34    12    18 1   
    35    12    40 1   
    36    13    14 1   
    37    14    15 1   
    38    14    21 1   
    39    14    41 1   
    40    15    16 1   
    41    15    42 1   
    42    15    43 1   
    43    16    17 1   
    44    16    19 1   
    45    16    44 1   
    46    17    45 1   
    47    17    46 1   
    48    18    20 1   
    49    18    47 1   
    50    18    48 1   
    51    19    20 1   
    52    19    25 1   
    53    19    49 1   
    54    20    21 1   
    55    20    50 1   
    56    21    51 1   
    57    21    52 1   
    58    25    53 1   
    59    54    55 1   
@<TRIPOS>SUBSTRUCTURE
     1 8KD         1 TEMP              0 ****  ****    0 ROOT
