@<TRIPOS>MOLECULE
8KF
   39    42     1     0     0
SMALL
abcg2


@<TRIPOS>ATOM
      1 C13         -7.2850    -0.3820   -21.1440 ca         1 8KF       0.388000
      2 C15         -5.6430     1.4680   -21.1570 ca         1 8KF       0.303000
      3 C17         -5.3980     3.3790   -19.7270 cp         1 8KF      -0.070000
      4 C20         -4.9220     2.1490   -22.1560 ca         1 8KF      -0.105000
      5 C22         -4.7880     5.4600   -19.0110 ca         1 8KF      -0.001200
      6 C24         -6.0220     4.2120   -17.3370 ca         1 8KF      -0.045000
      7 C26         -5.2290     6.4570   -16.9010 ca         1 8KF      -0.087000
      8 C02         -6.3740    -2.7250   -21.7620 c          1 8KF       0.726600
      9 C04         -7.4750    -1.7810   -21.2950 ca         1 8KF      -0.233600
     10 C05         -8.7220    -2.3210   -21.0090 ca         1 8KF       0.007000
     11 C06         -9.7920    -1.5420   -20.5960 ca         1 8KF      -0.296300
     12 C07        -11.1170    -2.1230   -20.2600 c3         1 8KF       0.362300
     13 C11         -9.6060    -0.1650   -20.4710 ca         1 8KF      -0.031000
     14 C12         -8.3830     0.4040   -20.7390 ca         1 8KF      -0.239000
     15 C16         -5.8630     2.0830   -19.9300 ca         1 8KF      -0.101000
     16 C18         -4.6820     4.0430   -20.7410 ca         1 8KF      -0.037200
     17 C19         -4.4270     3.4250   -21.9610 ca         1 8KF      -0.133000
     18 C23         -5.4630     4.2870   -18.6110 cp         1 8KF      -0.083000
     19 C25         -5.9010     5.2980   -16.4880 ca         1 8KF      -0.160000
     20 C27         -4.6660     6.5560   -18.1620 ca         1 8KF      -0.156000
     21 F08        -12.1250    -1.5030   -20.9020 f          1 8KF      -0.132000
     22 F09        -11.2130    -3.4240   -20.5590 f          1 8KF      -0.132000
     23 F10        -11.4040    -2.0110   -18.9480 f          1 8KF      -0.132000
     24 N14         -6.0730     0.1640   -21.4240 nu         1 8KF      -1.011000
     25 N21         -4.3300     5.2900   -20.2910 na         1 8KF      -0.238600
     26 O01         -5.2840    -2.2050   -22.1200 o          1 8KF      -0.710500
     27 O03         -6.6280    -3.9380   -21.7650 o          1 8KF      -0.710500
     28 H1          -4.7550     1.6550   -23.1050 ha         1 8KF       0.125000
     29 H2          -6.5430     3.3180   -17.0160 ha         1 8KF       0.119000
     30 H3          -5.1490     7.2940   -16.2200 ha         1 8KF       0.100000
     31 H4          -8.8330    -3.3910   -21.1220 ha         1 8KF       0.145000
     32 H5         -10.4210     0.4820   -20.1690 ha         1 8KF       0.097000
     33 H6          -8.2770     1.4750   -20.6490 ha         1 8KF       0.106000
     34 H7          -6.3840     1.5600   -19.1380 ha         1 8KF       0.130000
     35 H8          -3.8720     3.9270   -22.7430 ha         1 8KF       0.106000
     36 H9          -6.3290     5.2570   -15.4950 ha         1 8KF       0.106000
     37 H10         -4.1490     7.4550   -18.4740 ha         1 8KF       0.106000
     38 H11         -5.4260    -0.5330   -21.8160 hn         1 8KF       0.576000
     39 H12         -3.8170     5.9760   -20.8200 hn         1 8KF       0.344000
@<TRIPOS>BOND
     1     1     9 ar  
     2     1    14 ar  
     3     1    24 1   
     4     2     4 ar  
     5     2    15 ar  
     6     2    24 1   
     7     3    15 ar  
     8     3    16 ar  
     9     3    18 1   
    10     4    17 ar  
    11     4    28 1   
    12     5    18 ar  
    13     5    20 ar  
    14     5    25 1   
    15     6    18 ar  
    16     6    19 ar  
    17     6    29 1   
    18     7    19 ar  
    19     7    20 ar  
    20     7    30 1   
    21     8     9 1   
    22     8    26 1   
    23     8    27 1   
    24     9    10 ar  
    25    10    11 ar  
    26    10    31 1   
    27    11    12 1   
    28    11    13 ar  
    29    12    21 1   
    30    12    22 1   
    31    12    23 1   
    32    13    14 ar  
    33    13    32 1   
    34    14    33 1   
    35    15    34 1   
    36    16    17 ar  
    37    16    25 1   
    38    17    35 1   
    39    19    36 1   
    40    20    37 1   
    41    24    38 1   
    42    25    39 1   
@<TRIPOS>SUBSTRUCTURE
     1 8KF         1 TEMP              0 ****  ****    0 ROOT
