@<TRIPOS>MOLECULE
8KF
   39    42     1     0     0
SMALL
No Charge or Current Charge


@<TRIPOS>ATOM
      1 C13         -7.4480    -0.3300   -21.2260 ca         1 8KF       0.388000
      2 C15         -5.7030     1.5660   -21.2800 ca         1 8KF       0.303000
      3 C17         -5.3780     3.4710   -19.8070 cp         1 8KF      -0.070000
      4 C20         -4.7490     2.1170   -22.1750 ca         1 8KF      -0.105000
      5 C22         -4.6190     5.4590   -18.9180 ca         1 8KF      -0.001200
      6 C24         -6.2450     4.3500   -17.5010 ca         1 8KF      -0.045000
      7 C26         -5.2340     6.4970   -16.8450 ca         1 8KF      -0.087000
      8 C02         -6.3710    -2.5630   -21.8280 c          1 8KF       0.726600
      9 C04         -7.5280    -1.7330   -21.3330 ca         1 8KF      -0.233600
     10 C05         -8.7230    -2.3820   -20.9510 ca         1 8KF       0.007000
     11 C06         -9.8380    -1.6490   -20.4940 ca         1 8KF      -0.296300
     12 C07        -11.1190    -2.3820   -20.0820 c3         1 8KF       0.362300
     13 C11         -9.7470    -0.2470   -20.4130 ca         1 8KF      -0.031000
     14 C12         -8.5620     0.4010   -20.7850 ca         1 8KF      -0.239000
     15 C16         -6.0110     2.2420   -20.0750 ca         1 8KF      -0.101000
     16 C18         -4.4600     3.9940   -20.7120 ca         1 8KF      -0.037200
     17 C19         -4.1140     3.3500   -21.9010 ca         1 8KF      -0.133000
     18 C23         -5.4770     4.3890   -18.6800 cp         1 8KF      -0.083000
     19 C25         -6.1150     5.4170   -16.5830 ca         1 8KF      -0.160000
     20 C27         -4.4680     6.5280   -18.0310 ca         1 8KF      -0.156000
     21 F08        -12.2110    -1.5840   -20.1130 f          1 8KF      -0.132000
     22 F09        -11.3860    -3.4310   -20.8940 f          1 8KF      -0.132000
     23 F10        -11.0220    -2.8700   -18.8260 f          1 8KF      -0.132000
     24 N14         -6.2840     0.3350   -21.5950 nu         1 8KF      -1.011000
     25 N21         -4.0110     5.2020   -20.1560 na         1 8KF      -0.238600
     26 O01         -5.5940    -2.0740   -22.6390 o          1 8KF      -0.710500
     27 O03         -6.2710    -3.7100   -21.4200 o          1 8KF      -0.710500
     28 H1          -4.5050     1.5870   -23.0920 ha         1 8KF       0.125000
     29 H2          -6.9200     3.5200   -17.3020 ha         1 8KF       0.119000
     30 H3          -5.1480     7.3090   -16.1260 ha         1 8KF       0.100000
     31 H4          -8.7880    -3.4680   -21.0170 ha         1 8KF       0.145000
     32 H5         -10.5900     0.3470   -20.0660 ha         1 8KF       0.097000
     33 H6          -8.5250     1.4850   -20.7420 ha         1 8KF       0.106000
     34 H7          -6.7050     1.8200   -19.3560 ha         1 8KF       0.130000
     35 H8          -3.3870     3.7770   -22.5880 ha         1 8KF       0.106000
     36 H9          -6.6980     5.4080   -15.6640 ha         1 8KF       0.106000
     37 H10         -3.7900     7.3500   -18.2440 ha         1 8KF       0.106000
     38 H11         -5.6990    -0.2800   -22.1820 hn         1 8KF       0.576000
     39 H12         -3.3300     5.8120   -20.5930 hn         1 8KF       0.344000
@<TRIPOS>BOND
     1     1     9 ar  
     2     1    14 ar  
     3     1    24 1   
     4     2     4 ar  
     5     2    15 ar  
     6     2    24 1   
     7     3    15 ar  
     8     3    16 ar  
     9     3    18 1   
    10     4    17 ar  
    11     4    28 1   
    12     5    18 ar  
    13     5    20 ar  
    14     5    25 1   
    15     6    18 ar  
    16     6    19 ar  
    17     6    29 1   
    18     7    19 ar  
    19     7    20 ar  
    20     7    30 1   
    21     8     9 1   
    22     8    26 1   
    23     8    27 1   
    24     9    10 ar  
    25    10    11 ar  
    26    10    31 1   
    27    11    12 1   
    28    11    13 ar  
    29    12    21 1   
    30    12    22 1   
    31    12    23 1   
    32    13    14 ar  
    33    13    32 1   
    34    14    33 1   
    35    15    34 1   
    36    16    17 ar  
    37    16    25 1   
    38    17    35 1   
    39    19    36 1   
    40    20    37 1   
    41    24    38 1   
    42    25    39 1   
@<TRIPOS>SUBSTRUCTURE
     1 8KF         1 TEMP              0 ****  ****    0 ROOT
