@<TRIPOS>MOLECULE
8KG
   52    56     1     0     0
SMALL
No Charge or Current Charge


@<TRIPOS>ATOM
      1 C13          0.1600     1.2630    -1.9420 ca         1 8KG      -0.113000
      2 C18          2.0290    -0.7250     0.4810 c          1 8KG       0.619100
      3 C17          0.1120     2.0030     0.3660 ca         1 8KG      -0.113000
      4 C16          0.5130     3.2870    -0.0400 ca         1 8KG      -0.112500
      5 C15          0.7350     3.5630    -1.3950 ca         1 8KG      -0.114000
      6 C22          4.2440    -0.8010    -0.0090 cy         1 8KG       0.083500
      7 C23          4.8290     0.6500     0.0220 cy         1 8KG       0.130300
      8 C24          3.3480     1.1180     0.2150 cy         1 8KG       0.083500
      9 C11         -0.1030     0.9660    -0.5800 ca         1 8KG      -0.069300
     10 C12          0.8100    -1.3350    -0.2350 c3         1 8KG      -0.145400
     11 C1          -1.6080    -1.0930    -1.1500 c6         1 8KG      -0.049700
     12 C2          -0.5200    -0.4860    -0.1510 c6         1 8KG       0.027300
     13 C3          -1.1840    -0.5420     1.2940 c6         1 8KG      -0.049700
     14 C4          -2.5310     0.3010     1.2870 c6         1 8KG      -0.068150
     15 C5          -3.5840    -0.2490     0.2440 c6         1 8KG      -0.074200
     16 C6          -2.9090    -0.2230    -1.1600 c6         1 8KG      -0.068150
     17 C7          -2.0150    -2.5610    -0.7850 c6         1 8KG      -0.068150
     18 C8          -3.9600    -1.7120     0.6470 c6         1 8KG       0.174300
     19 C9          -2.6770    -2.6070     0.6220 c6         1 8KG      -0.074200
     20 C10         -1.6370    -2.0190     1.6570 c6         1 8KG      -0.068150
     21 C14          0.5660     2.5460    -2.3440 ca         1 8KG      -0.112500
     22 N19          2.9570    -0.1670    -0.4620 nj         1 8KG      -0.419800
     23 O20          2.0680    -0.8290     1.7060 o          1 8KG      -0.618100
     24 O21         -4.9790    -2.2390    -0.2130 oh         1 8KG      -0.660000
     25 H41          0.0700     0.4990    -2.7070 ha         1 8KG       0.115500
     26 H45         -0.0200     1.8350     1.4290 ha         1 8KG       0.115500
     27 H44          0.6610     4.0680     0.7030 ha         1 8KG       0.112500
     28 H43          1.0500     4.5560    -1.7070 ha         1 8KG       0.113000
     29 H48          4.6990    -1.4440    -0.7700 h1         1 8KG       0.065200
     30 H47          4.2550    -1.3030     0.9660 h1         1 8KG       0.065200
     31 H49          5.2520     0.9570    -0.9430 h1         1 8KG       0.047700
     32 H50          3.0550     1.2560     1.2630 h1         1 8KG       0.065200
     33 H51          3.0870     2.0070    -0.3690 h1         1 8KG       0.065200
     34 H39          1.0670    -1.4400    -1.2960 hc         1 8KG       0.061700
     35 H40          0.6700    -2.3400     0.1680 hc         1 8KG       0.061700
     36 H26         -1.2080    -1.1260    -2.1700 hc         1 8KG       0.057200
     37 H27         -0.5020    -0.1800     2.0730 hc         1 8KG       0.057200
     38 H28         -2.9740     0.2900     2.2930 hc         1 8KG       0.047325
     39 H29         -2.3350     1.3590     1.0750 hc         1 8KG       0.047325
     40 H30         -4.4810     0.3850     0.2480 hc         1 8KG       0.053700
     41 H32         -2.6810     0.8110    -1.4490 hc         1 8KG       0.047325
     42 H31         -3.6060    -0.5980    -1.9220 hc         1 8KG       0.047325
     43 H33         -2.7110    -2.9510    -1.5400 hc         1 8KG       0.047325
     44 H34         -1.1480    -3.2330    -0.8210 hc         1 8KG       0.047325
     45 H35         -4.3440    -1.6940     1.6780 h1         1 8KG       0.030700
     46 H36         -2.9290    -3.6420     0.8920 hc         1 8KG       0.053700
     47 H38         -0.7720    -2.6870     1.7460 hc         1 8KG       0.047325
     48 H37         -2.0890    -2.0200     2.6590 hc         1 8KG       0.047325
     49 H42          0.7560     2.7500    -3.3960 ha         1 8KG       0.112500
     50 H46         -5.1670    -3.1490     0.1020 ho         1 8KG       0.439000
     51 O25          5.7390     0.9460     1.0780 oh         1 8KG      -0.638000
     52 H52          5.9680     1.9010     1.0170 ho         1 8KG       0.449000
@<TRIPOS>BOND
     1     1     9 ar  
     2     1    21 ar  
     3     1    25 1   
     4     2    10 1   
     5     2    22 1   
     6     2    23 2   
     7     3     4 ar  
     8     3     9 ar  
     9     3    26 1   
    10     4     5 ar  
    11     4    27 1   
    12     5    21 ar  
    13     5    28 1   
    14     6     7 1   
    15     6    22 1   
    16     6    29 1   
    17     6    30 1   
    18     7     8 1   
    19     7    31 1   
    20     7    51 1   
    21     8    22 1   
    22     8    32 1   
    23     8    33 1   
    24     9    12 1   
    25    10    12 1   
    26    10    34 1   
    27    10    35 1   
    28    11    12 1   
    29    11    16 1   
    30    11    17 1   
    31    11    36 1   
    32    12    13 1   
    33    13    14 1   
    34    13    20 1   
    35    13    37 1   
    36    14    15 1   
    37    14    38 1   
    38    14    39 1   
    39    15    16 1   
    40    15    18 1   
    41    15    40 1   
    42    16    41 1   
    43    16    42 1   
    44    17    19 1   
    45    17    43 1   
    46    17    44 1   
    47    18    19 1   
    48    18    24 1   
    49    18    45 1   
    50    19    20 1   
    51    19    46 1   
    52    20    47 1   
    53    20    48 1   
    54    21    49 1   
    55    24    50 1   
    56    51    52 1   
@<TRIPOS>SUBSTRUCTURE
     1 8KG         1 TEMP              0 ****  ****    0 ROOT
