@<TRIPOS>MOLECULE
8KG
   52    56     1     0     0
SMALL
bcc


@<TRIPOS>ATOM
      1 C13          0.0040     1.4760    -1.6640 ca         1 8KG      -0.131000
      2 C18          1.8420    -1.0790     0.7280 c          1 8KG       0.686100
      3 C17          0.3770     1.7530     0.6720 ca         1 8KG      -0.131000
      4 C16          0.8870     3.0230     0.4440 ca         1 8KG      -0.130500
      5 C15          0.9520     3.5330    -0.8450 ca         1 8KG      -0.132000
      6 C22          4.0660     0.0280     1.0850 cy         1 8KG       0.083500
      7 C23          4.6520     0.6180    -0.2090 cy         1 8KG       0.107100
      8 C24          3.3000     0.3080    -0.8970 cy         1 8KG       0.083500
      9 C11         -0.0750     0.9480    -0.3740 ca         1 8KG      -0.069300
     10 C12          0.7630    -1.3540    -0.2960 c3         1 8KG      -0.145400
     11 C1          -1.5750    -0.9600    -1.1780 c6         1 8KG      -0.049700
     12 C2          -0.5230    -0.4970    -0.1310 c6         1 8KG       0.027300
     13 C3          -1.1920    -0.6720     1.2560 c6         1 8KG      -0.049700
     14 C4          -2.4510     0.1960     1.3510 c6         1 8KG      -0.068150
     15 C5          -3.4690    -0.2380     0.2970 c6         1 8KG      -0.074200
     16 C6          -2.8350    -0.0910    -1.0880 c6         1 8KG      -0.068150
     17 C7          -2.0000    -2.4160    -0.9490 c6         1 8KG      -0.068150
     18 C8          -3.8620    -1.6890     0.5650 c6         1 8KG       0.151100
     19 C9          -2.6150    -2.5700     0.4400 c6         1 8KG      -0.074200
     20 C10         -1.6010    -2.1290     1.4940 c6         1 8KG      -0.068150
     21 C14          0.5030     2.7510    -1.8990 ca         1 8KG      -0.130500
     22 N19          2.9060    -0.3860     0.3200 nj         1 8KG      -0.486800
     23 O20          1.7740    -1.4990     1.8820 o          1 8KG      -0.618100
     24 O21         -4.8840    -2.0550    -0.3390 oh         1 8KG      -0.597800
     25 H41         -0.3220     0.8950    -2.5170 ha         1 8KG       0.133500
     26 H45          0.3390     1.3950     1.6920 ha         1 8KG       0.133500
     27 H44          1.2320     3.6160     1.2810 ha         1 8KG       0.130500
     28 H43          1.3460     4.5240    -1.0270 ha         1 8KG       0.131000
     29 H48          4.6250    -0.7860     1.5480 h1         1 8KG       0.065200
     30 H47          3.8390     0.7840     1.8430 h1         1 8KG       0.065200
     31 H49          5.4600     0.0000    -0.6140 h1         1 8KG       0.047700
     32 H50          2.7090     1.2040    -1.0990 h1         1 8KG       0.065200
     33 H51          3.3370    -0.3170    -1.7900 h1         1 8KG       0.065200
     34 H39          1.1420    -1.1940    -1.3090 hc         1 8KG       0.061700
     35 H40          0.5310    -2.4160    -0.2170 hc         1 8KG       0.061700
     36 H26         -1.1540    -0.8900    -2.1850 hc         1 8KG       0.057200
     37 H27         -0.4990    -0.3890     2.0490 hc         1 8KG       0.057200
     38 H28         -2.8780     0.1010     2.3550 hc         1 8KG       0.047325
     39 H29         -2.2120     1.2540     1.2160 hc         1 8KG       0.047325
     40 H30         -4.3590     0.3960     0.3650 hc         1 8KG       0.053700
     41 H32         -2.5980     0.9620    -1.2650 hc         1 8KG       0.047325
     42 H31         -3.5380    -0.3820    -1.8720 hc         1 8KG       0.047325
     43 H33         -2.7270    -2.6930    -1.7170 hc         1 8KG       0.047325
     44 H34         -1.1630    -3.1080    -1.0710 hc         1 8KG       0.047325
     45 H35         -4.2320    -1.7620     1.6010 h1         1 8KG       0.030700
     46 H36         -2.8920    -3.6160     0.6160 hc         1 8KG       0.053700
     47 H38         -0.7310    -2.7880     1.4890 hc         1 8KG       0.047325
     48 H37         -2.0370    -2.2140     2.4950 hc         1 8KG       0.047325
     49 H42          0.5460     3.1270    -2.9130 ha         1 8KG       0.130500
     50 H46         -5.0670    -2.9930    -0.2200 ho         1 8KG       0.400000
     51 O25          5.0270     1.9530    -0.0850 oh         1 8KG      -0.575800
     52 H52          5.3560     2.2600    -0.9350 ho         1 8KG       0.410000
@<TRIPOS>BOND
     1     1     9 ar  
     2     1    21 ar  
     3     1    25 1   
     4     2    10 1   
     5     2    22 1   
     6     2    23 2   
     7     3     4 ar  
     8     3     9 ar  
     9     3    26 1   
    10     4     5 ar  
    11     4    27 1   
    12     5    21 ar  
    13     5    28 1   
    14     6     7 1   
    15     6    22 1   
    16     6    29 1   
    17     6    30 1   
    18     7     8 1   
    19     7    31 1   
    20     7    51 1   
    21     8    22 1   
    22     8    32 1   
    23     8    33 1   
    24     9    12 1   
    25    10    12 1   
    26    10    34 1   
    27    10    35 1   
    28    11    12 1   
    29    11    16 1   
    30    11    17 1   
    31    11    36 1   
    32    12    13 1   
    33    13    14 1   
    34    13    20 1   
    35    13    37 1   
    36    14    15 1   
    37    14    38 1   
    38    14    39 1   
    39    15    16 1   
    40    15    18 1   
    41    15    40 1   
    42    16    41 1   
    43    16    42 1   
    44    17    19 1   
    45    17    43 1   
    46    17    44 1   
    47    18    19 1   
    48    18    24 1   
    49    18    45 1   
    50    19    20 1   
    51    19    46 1   
    52    20    47 1   
    53    20    48 1   
    54    21    49 1   
    55    24    50 1   
    56    51    52 1   
@<TRIPOS>SUBSTRUCTURE
     1 8KG         1 TEMP              0 ****  ****    0 ROOT
