@<TRIPOS>MOLECULE
8KH
  132   138     1     0     0
SMALL
No Charge or Current Charge


@<TRIPOS>ATOM
      1 O6         -10.9110     6.9750    14.8020 o          1 8KH      -0.610100
      2 C20        -11.7820     7.7480    14.4300 c          1 8KH       0.614700
      3 C19        -12.3590     8.8100    15.3460 ca         1 8KH      -0.151600
      4 C18        -13.3610     9.7150    14.9200 ca         1 8KH      -0.072000
      5 C17        -13.8700    10.6850    15.8010 ca         1 8KH      -0.109500
      6 C48        -11.8880     8.9120    16.6740 ca         1 8KH      -0.072000
      7 C49        -12.4000     9.8840    17.5480 ca         1 8KH      -0.109500
      8 C16        -13.4020    10.7930    17.1320 cp         1 8KH      -0.005000
      9 C15        -13.9490    11.8300    18.0650 cp         1 8KH      -0.043000
     10 C14        -13.1170    12.4680    19.0190 ca         1 8KH      -0.084000
     11 C6         -13.6250    13.4480    19.9020 ca         1 8KH      -0.055000
     12 N2         -12.8320    14.0970    20.8920 ns         1 8KH      -0.151000
     13 C7         -11.4650    14.1450    21.1410 c          1 8KH       0.626300
     14 O1         -10.6670    13.5840    20.4080 o          1 8KH      -0.555100
     15 C8         -11.0870    14.9530    22.3690 cc         1 8KH      -0.248200
     16 C12         -9.6910    15.1880    22.7940 cc         1 8KH      -0.064200
     17 C13         -8.4690    14.6480    22.0340 c3         1 8KH       0.355200
     18 F2          -7.3010    15.0190    22.6090 f          1 8KH      -0.103333
     19 F1          -8.4140    15.1090    20.7630 f          1 8KH      -0.103333
     20 F           -8.4470    13.2960    21.9960 f          1 8KH      -0.103333
     21 C11         -9.5110    15.9460    23.9480 cd         1 8KH      -0.265200
     22 C10        -10.5880    16.5200    24.7550 c          1 8KH       0.553200
     23 O          -10.4090    17.1830    25.7640 o          1 8KH      -0.523000
     24 N3         -11.8300    16.2420    24.2740 ns         1 8KH      -0.360100
     25 C9         -12.1120    15.5010    23.1460 cd         1 8KH       0.006600
     26 C50        -15.3140    12.1990    18.0230 ca         1 8KH      -0.091000
     27 C51        -15.8280    13.1650    18.9020 ca         1 8KH      -0.142000
     28 C5         -14.9960    13.7920    19.8430 ca         1 8KH       0.249000
     29 N1         -15.5240    14.7750    20.7170 nh         1 8KH      -0.806400
     30 C2         -16.7670    14.5160    21.5130 c6         1 8KH       0.192800
     31 C1         -18.0170    15.2840    20.9670 c6         1 8KH       0.129300
     32 C4         -15.2980    16.2270    20.4270 c6         1 8KH       0.192800
     33 C3         -16.5790    16.9370    19.8820 c6         1 8KH       0.129300
     34 N          -17.7670    16.7440    20.7670 n3         1 8KH      -0.711600
     35 C          -18.9630    17.4660    20.2830 c3         1 8KH       0.150100
     36 N4         -12.2910     7.6910    13.1490 ns         1 8KH      -0.501900
     37 C21        -11.8490     6.7640    12.1040 c3         1 8KH       0.098000
     38 C22        -10.4690     7.1450    11.5250 c3         1 8KH      -0.106400
     39 C23        -10.1140     6.4240    10.2020 c3         1 8KH      -0.065400
     40 C24        -10.0440     4.8770    10.2720 c3         1 8KH      -0.157400
     41 C25         -8.9280     4.3470    11.1820 c          1 8KH       0.595100
     42 O5          -7.7430     4.5220    10.9360 o          1 8KH      -0.615100
     43 N5          -9.3560     3.5970    12.2540 ns         1 8KH      -0.486900
     44 C26         -8.4730     2.8580    13.1940 c3         1 8KH       0.056700
     45 C27         -8.3250     3.6010    14.5780 c3         1 8KH      -0.042000
     46 C30         -7.7880     5.0430    14.3540 c3         1 8KH      -0.090767
     47 C29         -7.3180     2.8730    15.5090 c3         1 8KH      -0.090767
     48 C28         -9.6950     3.6870    15.3080 c3         1 8KH      -0.090767
     49 C31         -9.0100     1.3870    13.3150 c          1 8KH       0.605100
     50 O4         -10.2070     1.1400    13.1920 o          1 8KH      -0.616100
     51 N6          -8.1060     0.3410    13.6040 n          1 8KH      -0.385800
     52 C35         -8.5780    -1.0320    13.9320 c5         1 8KH       0.035700
     53 C34         -7.2200    -1.7390    14.2200 c5         1 8KH      -0.127400
     54 C33         -6.3010    -1.1540    13.1200 c5         1 8KH       0.151300
     55 O2          -6.5700    -1.7470    11.8460 oh         1 8KH      -0.642000
     56 C32         -6.6880     0.3570    13.1600 c5         1 8KH       0.112000
     57 C36         -9.4810    -1.1400    15.2030 c          1 8KH       0.606100
     58 O3          -9.6160    -0.3130    16.0960 o          1 8KH      -0.594100
     59 N7         -10.1450    -2.3490    15.1850 ns         1 8KH      -0.501900
     60 C37        -11.0320    -2.8190    16.2470 c3         1 8KH       0.155300
     61 C38        -10.2690    -3.6370    17.2780 ca         1 8KH      -0.093300
     62 C41        -10.1250    -5.0280    17.1170 ca         1 8KH      -0.092500
     63 C42         -9.4110    -5.7820    18.0650 ca         1 8KH      -0.098500
     64 C43         -8.8380    -5.1570    19.1880 ca         1 8KH      -0.007000
     65 C40         -8.9700    -3.7630    19.3400 ca         1 8KH      -0.098500
     66 C39         -9.6830    -3.0080    18.3930 ca         1 8KH      -0.092500
     67 C44         -8.0890    -5.9530    20.1580 cc         1 8KH      -0.180000
     68 S           -6.8400    -7.0900    19.7520 ss         1 8KH      -0.033400
     69 C47         -6.7220    -7.4300    21.4600 cc         1 8KH       0.411300
     70 N8          -7.5650    -6.7810    22.2600 nd         1 8KH      -0.637000
     71 C45         -8.3690    -5.9330    21.5110 cd         1 8KH       0.299300
     72 C46         -9.4300    -5.1290    22.2150 c3         1 8KH      -0.121400
     73 H1         -13.7570     9.6850    13.9080 ha         1 8KH       0.123500
     74 H2         -14.6300    11.3730    15.4380 ha         1 8KH       0.118000
     75 H3         -11.1200     8.2310    17.0360 ha         1 8KH       0.123500
     76 H4         -12.0230     9.9220    18.5670 ha         1 8KH       0.118000
     77 H5         -12.0720    12.1860    19.0540 ha         1 8KH       0.134000
     78 H6         -13.3950    14.6370    21.5320 hn         1 8KH       0.169000
     79 H8          -8.5310    16.1780    24.3470 ha         1 8KH       0.231000
     80 H9         -13.1820    15.4080    22.9720 h4         1 8KH       0.214000
     81 H10        -15.9860    11.7230    17.3130 ha         1 8KH       0.117000
     82 H11        -16.8790    13.4300    18.8440 ha         1 8KH       0.117000
     83 H12        -16.9920    13.4400    21.5360 h1         1 8KH       0.061950
     84 H13        -16.5990    14.8180    22.5570 h1         1 8KH       0.061950
     85 H14        -18.3210    14.8250    20.0150 h1         1 8KH       0.039950
     86 H15        -18.8500    15.1340    21.6690 h1         1 8KH       0.039950
     87 H16        -14.9730    16.7400    21.3430 h1         1 8KH       0.061950
     88 H17        -14.4870    16.3510    19.6940 h1         1 8KH       0.061950
     89 H18        -16.3600    18.0080    19.7660 h1         1 8KH       0.039950
     90 H19        -16.7910    16.5430    18.8760 h1         1 8KH       0.039950
     91 H21        -19.8010    17.3390    20.9810 h1         1 8KH       0.032700
     92 H22        -18.7570    18.5410    20.1930 h1         1 8KH       0.032700
     93 H23        -19.2760    17.0920    19.2980 h1         1 8KH       0.032700
     94 H24        -13.0130     8.3600    12.9190 hn         1 8KH       0.315500
     95 H25        -12.5970     6.7810    11.2990 h1         1 8KH       0.053700
     96 H26        -11.8170     5.7460    12.5140 h1         1 8KH       0.053700
     97 H27         -9.6900     6.9560    12.2720 hc         1 8KH       0.051700
     98 H28        -10.4570     8.2250    11.3330 hc         1 8KH       0.051700
     99 H29         -9.1490     6.8060     9.8430 hc         1 8KH       0.050700
    100 H30        -10.8530     6.7060     9.4420 hc         1 8KH       0.050700
    101 H31        -11.0150     4.4810    10.5920 hc         1 8KH       0.063700
    102 H32         -9.8420     4.5100     9.2590 hc         1 8KH       0.063700
    103 H33        -10.3560     3.4650    12.3470 hn         1 8KH       0.334500
    104 H34         -7.4780     2.8000    12.7400 h1         1 8KH       0.072700
    105 H35         -7.6130     5.5510    15.3100 hc         1 8KH       0.041144
    106 H36         -6.8410     5.0270    13.8020 hc         1 8KH       0.041144
    107 H37         -8.5010     5.6520    13.7890 hc         1 8KH       0.041144
    108 H38         -7.1990     3.4170    16.4540 hc         1 8KH       0.041144
    109 H39         -7.6550     1.8610    15.7620 hc         1 8KH       0.041144
    110 H40         -6.3290     2.8070    15.0420 hc         1 8KH       0.041144
    111 H41         -9.6030     4.2500    16.2450 hc         1 8KH       0.041144
    112 H42        -10.4460     4.1910    14.6900 hc         1 8KH       0.041144
    113 H43        -10.0760     2.6900    15.5590 hc         1 8KH       0.041144
    114 H44         -9.0990    -1.4760    13.0730 h1         1 8KH       0.070700
    115 H45         -7.2940    -2.8320    14.1810 hc         1 8KH       0.065200
    116 H46         -6.8400    -1.4790    15.2160 hc         1 8KH       0.065200
    117 H47         -5.2400    -1.2890    13.3730 h1         1 8KH       0.049700
    118 H48         -6.2570    -2.6770    11.8920 ho         1 8KH       0.440000
    119 H49         -6.0580     0.8940    13.8780 h1         1 8KH       0.069200
    120 H50         -6.5640     0.8270    12.1750 h1         1 8KH       0.069200
    121 H51         -9.9620    -2.9650    14.4030 hn         1 8KH       0.317500
    122 H52        -11.5170    -1.9620    16.7320 h1         1 8KH       0.058700
    123 H53        -11.8230    -3.4350    15.7980 h1         1 8KH       0.058700
    124 H54        -10.5640    -5.5270    16.2560 ha         1 8KH       0.115000
    125 H55         -9.3080    -6.8560    17.9290 ha         1 8KH       0.117500
    126 H56         -8.5100    -3.2590    20.1860 ha         1 8KH       0.117500
    127 H57         -9.7750    -1.9320    18.5220 ha         1 8KH       0.115000
    128 H58         -5.9890    -8.1510    21.8000 h5         1 8KH       0.052100
    129 H59         -9.7190    -5.5960    23.1640 hc         1 8KH       0.051367
    130 H60         -9.0710    -4.1180    22.4360 hc         1 8KH       0.051367
    131 H61        -10.3350    -5.0440    21.6020 hc         1 8KH       0.051367
    132 H62        -12.5840    16.6330    24.8270 hn         1 8KH       0.337500
@<TRIPOS>BOND
     1     1     2 2   
     2     2     3 1   
     3     2    36 1   
     4     3     4 ar  
     5     3     6 ar  
     6     4     5 ar  
     7     4    73 1   
     8     5     8 ar  
     9     5    74 1   
    10     6     7 ar  
    11     6    75 1   
    12     7     8 ar  
    13     7    76 1   
    14     8     9 1   
    15     9    10 ar  
    16     9    26 ar  
    17    10    11 ar  
    18    10    77 1   
    19    11    12 1   
    20    11    28 ar  
    21    12    13 1   
    22    12    78 1   
    23    13    14 2   
    24    13    15 1   
    25    15    16 1   
    26    15    25 2   
    27    16    17 1   
    28    16    21 2   
    29    17    18 1   
    30    17    19 1   
    31    17    20 1   
    32    21    22 1   
    33    21    79 1   
    34    22    23 2   
    35    22    24 1   
    36    24    25 1   
    37    24   132 1   
    38    25    80 1   
    39    26    27 ar  
    40    26    81 1   
    41    27    28 ar  
    42    27    82 1   
    43    28    29 1   
    44    29    30 1   
    45    29    32 1   
    46    30    31 1   
    47    30    83 1   
    48    30    84 1   
    49    31    34 1   
    50    31    85 1   
    51    31    86 1   
    52    32    33 1   
    53    32    87 1   
    54    32    88 1   
    55    33    34 1   
    56    33    89 1   
    57    33    90 1   
    58    34    35 1   
    59    35    91 1   
    60    35    92 1   
    61    35    93 1   
    62    36    37 1   
    63    36    94 1   
    64    37    38 1   
    65    37    95 1   
    66    37    96 1   
    67    38    39 1   
    68    38    97 1   
    69    38    98 1   
    70    39    40 1   
    71    39    99 1   
    72    39   100 1   
    73    40    41 1   
    74    40   101 1   
    75    40   102 1   
    76    41    42 2   
    77    41    43 1   
    78    43    44 1   
    79    43   103 1   
    80    44    45 1   
    81    44    49 1   
    82    44   104 1   
    83    45    46 1   
    84    45    47 1   
    85    45    48 1   
    86    46   105 1   
    87    46   106 1   
    88    46   107 1   
    89    47   108 1   
    90    47   109 1   
    91    47   110 1   
    92    48   111 1   
    93    48   112 1   
    94    48   113 1   
    95    49    50 2   
    96    49    51 1   
    97    51    52 1   
    98    51    56 1   
    99    52    53 1   
   100    52    57 1   
   101    52   114 1   
   102    53    54 1   
   103    53   115 1   
   104    53   116 1   
   105    54    55 1   
   106    54    56 1   
   107    54   117 1   
   108    55   118 1   
   109    56   119 1   
   110    56   120 1   
   111    57    58 2   
   112    57    59 1   
   113    59    60 1   
   114    59   121 1   
   115    60    61 1   
   116    60   122 1   
   117    60   123 1   
   118    61    62 ar  
   119    61    66 ar  
   120    62    63 ar  
   121    62   124 1   
   122    63    64 ar  
   123    63   125 1   
   124    64    65 ar  
   125    64    67 1   
   126    65    66 ar  
   127    65   126 1   
   128    66   127 1   
   129    67    68 1   
   130    67    71 2   
   131    68    69 1   
   132    69    70 2   
   133    69   128 1   
   134    70    71 1   
   135    71    72 1   
   136    72   129 1   
   137    72   130 1   
   138    72   131 1   
@<TRIPOS>SUBSTRUCTURE
     1 8KH         1 TEMP              0 ****  ****    0 ROOT
