@<TRIPOS>MOLECULE
8KH
  132   138     1     0     0
SMALL
abcg2


@<TRIPOS>ATOM
      1 O6         -12.7870     6.4760    14.6240 o          1 8KH      -0.610100
      2 C20        -12.8250     7.6220    14.1920 c          1 8KH       0.614700
      3 C19        -13.2000     8.7630    15.0810 ca         1 8KH      -0.151600
      4 C18        -13.8580     9.8980    14.6110 ca         1 8KH      -0.072000
      5 C17        -14.2140    10.9150    15.4800 ca         1 8KH      -0.109500
      6 C48        -12.9240     8.6680    16.4430 ca         1 8KH      -0.072000
      7 C49        -13.2700     9.6920    17.3070 ca         1 8KH      -0.109500
      8 C16        -13.9220    10.8360    16.8420 cp         1 8KH      -0.005000
      9 C15        -14.3000    11.9300    17.7560 cp         1 8KH      -0.043000
     10 C14        -13.4760    12.2920    18.8190 ca         1 8KH      -0.084000
     11 C6         -13.8210    13.3260    19.6760 ca         1 8KH      -0.055000
     12 N2         -13.0510    13.6220    20.8110 ns         1 8KH      -0.151000
     13 C7         -11.7000    13.7250    20.8570 c          1 8KH       0.626300
     14 O1         -10.9720    13.6270    19.8880 o          1 8KH      -0.555100
     15 C8         -11.1630    13.9230    22.2350 cc         1 8KH      -0.248200
     16 C12        -10.1440    14.8650    22.5820 cc         1 8KH      -0.064200
     17 C13         -9.6690    15.8890    21.5820 c3         1 8KH       0.355200
     18 F2          -9.0550    16.9150    22.1780 f          1 8KH      -0.103333
     19 F1         -10.6980    16.3990    20.8960 f          1 8KH      -0.103333
     20 F           -8.8030    15.3790    20.7060 f          1 8KH      -0.103333
     21 C11         -9.6310    14.8970    23.8360 cd         1 8KH      -0.265200
     22 C10        -10.0620    13.9800    24.8680 c          1 8KH       0.553200
     23 O           -9.6240    13.9490    26.0060 o          1 8KH      -0.523000
     24 N3         -11.0560    13.1130    24.4560 ns         1 8KH      -0.360100
     25 C9         -11.5800    13.0790    23.2190 cd         1 8KH       0.006600
     26 C50        -15.4990    12.6190    17.5930 ca         1 8KH      -0.091000
     27 C51        -15.8450    13.6590    18.4390 ca         1 8KH      -0.142000
     28 C5         -15.0090    14.0590    19.4810 ca         1 8KH       0.249000
     29 N1         -15.3150    15.0880    20.3780 nh         1 8KH      -0.806400
     30 C2         -16.7040    15.4450    20.6090 c6         1 8KH       0.192800
     31 C1         -17.2260    16.5400    19.6860 c6         1 8KH       0.129300
     32 C4         -14.4690    16.2790    20.3480 c6         1 8KH       0.192800
     33 C3         -14.9980    17.3230    19.3780 c6         1 8KH       0.129300
     34 N          -16.3540    17.6980    19.7250 n3         1 8KH      -0.711600
     35 C          -16.8490    18.7580    18.8780 c3         1 8KH       0.150100
     36 N4         -12.5490     7.9360    12.9160 ns         1 8KH      -0.501900
     37 C21        -12.1930     6.9550    11.9160 c3         1 8KH       0.098000
     38 C22        -10.6880     6.7410    11.7800 c3         1 8KH      -0.106400
     39 C23        -10.3530     5.7090    10.7060 c3         1 8KH      -0.065400
     40 C24        -10.7010     4.2630    11.0850 c3         1 8KH      -0.157400
     41 C25         -9.7120     3.6910    12.0730 c          1 8KH       0.595100
     42 O5          -8.6150     3.2780    11.7160 o          1 8KH      -0.615100
     43 N5         -10.0860     3.6890    13.3650 ns         1 8KH      -0.486900
     44 C26         -9.2390     3.1100    14.3810 c3         1 8KH       0.056700
     45 C27         -9.6390     3.5770    15.8080 c3         1 8KH      -0.042000
     46 C30         -9.5370     5.1050    15.8510 c3         1 8KH      -0.090767
     47 C29         -8.6410     3.0000    16.8150 c3         1 8KH      -0.090767
     48 C28        -11.0510     3.1510    16.2160 c3         1 8KH      -0.090767
     49 C31         -9.2730     1.5880    14.2220 c          1 8KH       0.605100
     50 O4         -10.3370     1.0100    14.0390 o          1 8KH      -0.616100
     51 N6          -8.1230     0.9000    14.3040 n          1 8KH      -0.385800
     52 C35         -8.1650    -0.5490    14.2210 c5         1 8KH       0.035700
     53 C34         -6.6940    -0.9470    14.3790 c5         1 8KH      -0.127400
     54 C33         -5.9510     0.2350    13.7690 c5         1 8KH       0.151300
     55 O2          -6.0300     0.2400    12.3610 oh         1 8KH      -0.642000
     56 C32         -6.7580     1.4160    14.2830 c5         1 8KH       0.112000
     57 C36         -9.0170    -1.1500    15.3310 c          1 8KH       0.606100
     58 O3          -9.0180    -0.6970    16.4630 o          1 8KH      -0.594100
     59 N7          -9.7020    -2.2490    14.9840 ns         1 8KH      -0.501900
     60 C37        -10.4820    -2.9990    15.9430 c3         1 8KH       0.155300
     61 C38         -9.6360    -3.7630    16.9300 ca         1 8KH      -0.093300
     62 C41         -8.6690    -4.6610    16.4850 ca         1 8KH      -0.092500
     63 C42         -7.9020    -5.3830    17.3820 ca         1 8KH      -0.098500
     64 C43         -8.0750    -5.2230    18.7600 ca         1 8KH      -0.007000
     65 C40         -9.0370    -4.3160    19.2040 ca         1 8KH      -0.098500
     66 C39         -9.8070    -3.6010    18.2990 ca         1 8KH      -0.092500
     67 C44         -7.2550    -5.9750    19.7110 cc         1 8KH      -0.180000
     68 S           -5.5620    -6.1820    19.4470 ss         1 8KH      -0.033400
     69 C47         -5.4600    -7.0780    20.9020 cc         1 8KH       0.411300
     70 N8          -6.5780    -7.2140    21.5350 nd         1 8KH      -0.637000
     71 C45         -7.6100    -6.5980    20.8800 cd         1 8KH       0.299300
     72 C46         -8.9830    -6.6790    21.4580 c3         1 8KH      -0.121400
     73 H1         -14.1190     9.9960    13.5650 ha         1 8KH       0.123500
     74 H2         -14.7140    11.7900    15.0840 ha         1 8KH       0.118000
     75 H3         -12.4330     7.7850    16.8330 ha         1 8KH       0.123500
     76 H4         -13.0480     9.5850    18.3610 ha         1 8KH       0.118000
     77 H5         -12.5580    11.7480    18.9950 ha         1 8KH       0.134000
     78 H6         -13.5800    13.9550    21.6060 hn         1 8KH       0.169000
     79 H8          -8.8830    15.6200    24.1280 ha         1 8KH       0.231000
     80 H9         -12.3370    12.3260    23.0530 h4         1 8KH       0.214000
     81 H10        -16.1850    12.3420    16.8020 ha         1 8KH       0.117000
     82 H11        -16.7820    14.1710    18.2690 ha         1 8KH       0.117000
     83 H12        -17.3310    14.5560    20.5340 h1         1 8KH       0.061950
     84 H13        -16.7820    15.8020    21.6410 h1         1 8KH       0.061950
     85 H14        -17.3400    16.1600    18.6560 h1         1 8KH       0.039950
     86 H15        -18.2240    16.8330    20.0220 h1         1 8KH       0.039950
     87 H16        -14.4380    16.7070    21.3550 h1         1 8KH       0.061950
     88 H17        -13.4500    16.0150    20.0760 h1         1 8KH       0.061950
     89 H18        -14.3590    18.2090    19.4280 h1         1 8KH       0.039950
     90 H19        -14.9280    16.9360    18.3450 h1         1 8KH       0.039950
     91 H21        -17.8510    19.0520    19.1930 h1         1 8KH       0.032700
     92 H22        -16.2030    19.6340    18.9580 h1         1 8KH       0.032700
     93 H23        -16.9010    18.4750    17.8150 h1         1 8KH       0.032700
     94 H24        -12.4630     8.9060    12.6580 hn         1 8KH       0.315500
     95 H25        -12.5980     7.2930    10.9600 h1         1 8KH       0.053700
     96 H26        -12.7000     6.0220    12.1610 h1         1 8KH       0.053700
     97 H27        -10.2650     6.4460    12.7440 hc         1 8KH       0.051700
     98 H28        -10.2200     7.6930    11.5180 hc         1 8KH       0.051700
     99 H29         -9.2910     5.7640    10.4570 hc         1 8KH       0.050700
    100 H30        -10.8890     5.9640     9.7870 hc         1 8KH       0.050700
    101 H31        -11.7230     4.1980    11.4630 hc         1 8KH       0.063700
    102 H32        -10.6590     3.6400    10.1900 hc         1 8KH       0.063700
    103 H33        -11.0270     3.9600    13.6000 hn         1 8KH       0.334500
    104 H34         -8.2280     3.4870    14.2220 h1         1 8KH       0.072700
    105 H35         -9.7190     5.4590    16.8670 hc         1 8KH       0.041144
    106 H36         -8.5420     5.4440    15.5540 hc         1 8KH       0.041144
    107 H37        -10.2660     5.5920    15.2040 hc         1 8KH       0.041144
    108 H38         -8.8640     3.3820    17.8120 hc         1 8KH       0.041144
    109 H39         -8.6820     1.9120    16.8660 hc         1 8KH       0.041144
    110 H40         -7.6160     3.2920    16.5760 hc         1 8KH       0.041144
    111 H41        -11.2770     3.5700    17.1980 hc         1 8KH       0.041144
    112 H42        -11.8220     3.5160    15.5350 hc         1 8KH       0.041144
    113 H43        -11.1520     2.0700    16.2890 hc         1 8KH       0.041144
    114 H44         -8.5450    -0.8630    13.2430 h1         1 8KH       0.070700
    115 H45         -6.4640    -1.9000    13.9020 hc         1 8KH       0.065200
    116 H46         -6.4320    -1.0300    15.4360 hc         1 8KH       0.065200
    117 H47         -4.9120     0.2870    14.1150 h1         1 8KH       0.049700
    118 H48         -5.6460    -0.5790    12.0320 ho         1 8KH       0.440000
    119 H49         -6.4190     1.6970    15.2820 h1         1 8KH       0.069200
    120 H50         -6.6630     2.2830    13.6300 h1         1 8KH       0.069200
    121 H51         -9.6840    -2.5630    14.0280 hn         1 8KH       0.317500
    122 H52        -11.1630    -2.3300    16.4730 h1         1 8KH       0.058700
    123 H53        -11.1020    -3.6930    15.3750 h1         1 8KH       0.058700
    124 H54         -8.5150    -4.8070    15.4220 ha         1 8KH       0.115000
    125 H55         -7.1710    -6.0890    17.0070 ha         1 8KH       0.117500
    126 H56         -9.1680    -4.1420    20.2640 ha         1 8KH       0.117500
    127 H57        -10.5420    -2.8970    18.6680 ha         1 8KH       0.115000
    128 H58         -4.5190    -7.4890    21.2410 h5         1 8KH       0.052100
    129 H59         -9.1360    -7.6500    21.9280 hc         1 8KH       0.051367
    130 H60         -9.1390    -5.9180    22.2250 hc         1 8KH       0.051367
    131 H61         -9.7510    -6.5420    20.6990 hc         1 8KH       0.051367
    132 H62        -11.4000    12.4510    25.1410 hn         1 8KH       0.337500
@<TRIPOS>BOND
     1     1     2 2   
     2     2     3 1   
     3     2    36 1   
     4     3     4 ar  
     5     3     6 ar  
     6     4     5 ar  
     7     4    73 1   
     8     5     8 ar  
     9     5    74 1   
    10     6     7 ar  
    11     6    75 1   
    12     7     8 ar  
    13     7    76 1   
    14     8     9 1   
    15     9    10 ar  
    16     9    26 ar  
    17    10    11 ar  
    18    10    77 1   
    19    11    12 1   
    20    11    28 ar  
    21    12    13 1   
    22    12    78 1   
    23    13    14 2   
    24    13    15 1   
    25    15    16 1   
    26    15    25 2   
    27    16    17 1   
    28    16    21 2   
    29    17    18 1   
    30    17    19 1   
    31    17    20 1   
    32    21    22 1   
    33    21    79 1   
    34    22    23 2   
    35    22    24 1   
    36    24    25 1   
    37    24   132 1   
    38    25    80 1   
    39    26    27 ar  
    40    26    81 1   
    41    27    28 ar  
    42    27    82 1   
    43    28    29 1   
    44    29    30 1   
    45    29    32 1   
    46    30    31 1   
    47    30    83 1   
    48    30    84 1   
    49    31    34 1   
    50    31    85 1   
    51    31    86 1   
    52    32    33 1   
    53    32    87 1   
    54    32    88 1   
    55    33    34 1   
    56    33    89 1   
    57    33    90 1   
    58    34    35 1   
    59    35    91 1   
    60    35    92 1   
    61    35    93 1   
    62    36    37 1   
    63    36    94 1   
    64    37    38 1   
    65    37    95 1   
    66    37    96 1   
    67    38    39 1   
    68    38    97 1   
    69    38    98 1   
    70    39    40 1   
    71    39    99 1   
    72    39   100 1   
    73    40    41 1   
    74    40   101 1   
    75    40   102 1   
    76    41    42 2   
    77    41    43 1   
    78    43    44 1   
    79    43   103 1   
    80    44    45 1   
    81    44    49 1   
    82    44   104 1   
    83    45    46 1   
    84    45    47 1   
    85    45    48 1   
    86    46   105 1   
    87    46   106 1   
    88    46   107 1   
    89    47   108 1   
    90    47   109 1   
    91    47   110 1   
    92    48   111 1   
    93    48   112 1   
    94    48   113 1   
    95    49    50 2   
    96    49    51 1   
    97    51    52 1   
    98    51    56 1   
    99    52    53 1   
   100    52    57 1   
   101    52   114 1   
   102    53    54 1   
   103    53   115 1   
   104    53   116 1   
   105    54    55 1   
   106    54    56 1   
   107    54   117 1   
   108    55   118 1   
   109    56   119 1   
   110    56   120 1   
   111    57    58 2   
   112    57    59 1   
   113    59    60 1   
   114    59   121 1   
   115    60    61 1   
   116    60   122 1   
   117    60   123 1   
   118    61    62 ar  
   119    61    66 ar  
   120    62    63 ar  
   121    62   124 1   
   122    63    64 ar  
   123    63   125 1   
   124    64    65 ar  
   125    64    67 1   
   126    65    66 ar  
   127    65   126 1   
   128    66   127 1   
   129    67    68 1   
   130    67    71 2   
   131    68    69 1   
   132    69    70 2   
   133    69   128 1   
   134    70    71 1   
   135    71    72 1   
   136    72   129 1   
   137    72   130 1   
   138    72   131 1   
@<TRIPOS>SUBSTRUCTURE
     1 8KH         1 TEMP              0 ****  ****    0 ROOT
