@<TRIPOS>MOLECULE
8KI
   40    41     1     0     0
SMALL
No Charge or Current Charge


@<TRIPOS>ATOM
      1 C12         33.8550    42.1900    72.2790 c3         1 8KI      -0.094100
      2 C09         35.2340    41.8230    72.8860 c3         1 8KI      -0.073700
      3 C02         36.2390    43.0260    72.8910 c6         1 8KI       0.028700
      4 N01         36.3200    43.6840    71.5630 ns         1 8KI      -0.486900
      5 C01         37.0920    43.2030    70.5330 c          1 8KI       0.541000
      6 O01         36.9780    43.6650    69.4050 o          1 8KI      -0.565000
      7 C10         35.7860    40.4790    72.3000 c3         1 8KI      -0.112400
      8 C08         36.2270    40.4660    70.8090 c3         1 8KI       0.165600
      9 O04         37.6420    40.7690    70.6530 os         1 8KI      -0.478000
     10 C04         38.1560    42.1020    70.9360 c6         1 8KI       0.256400
     11 N02         38.4870    42.1420    72.3730 ns         1 8KI      -0.509900
     12 C03         37.6260    42.5160    73.3680 c          1 8KI       0.570000
     13 O02         37.9740    42.5170    74.5390 o          1 8KI      -0.548000
     14 C05         39.4790    42.3140    70.0770 c3         1 8KI       0.199300
     15 O05         39.8700    43.7170    70.0670 oh         1 8KI      -0.692000
     16 C06         40.7550    41.4190    70.4360 c3         1 8KI       0.186000
     17 C11         41.9150    41.7350    69.4450 c3         1 8KI      -0.113100
     18 O06         41.2500    41.7110    71.7560 oh         1 8KI      -0.659000
     19 C07         40.4650    39.8790    70.4220 c3         1 8KI       0.125600
     20 O03         41.6340    39.1290    70.8200 oh         1 8KI      -0.734000
     21 H1          33.4460    43.0840    72.7660 hc         1 8KI       0.039367
     22 H2          33.9260    42.3910    71.2030 hc         1 8KI       0.039367
     23 H3          33.1380    41.3730    72.4240 hc         1 8KI       0.039367
     24 H4          35.0320    41.6020    73.9430 hc         1 8KI       0.073700
     25 H5          35.9040    43.7720    73.6260 h1         1 8KI       0.089700
     26 H6          35.6610    44.4190    71.3320 hn         1 8KI       0.325500
     27 H7          34.9910    39.7300    72.4040 hc         1 8KI       0.058700
     28 H8          36.6050    40.0960    72.9200 hc         1 8KI       0.058700
     29 H9          35.5940    41.1300    70.2070 h1         1 8KI       0.054700
     30 H10         36.0520    39.4510    70.4280 h1         1 8KI       0.054700
     31 H11         39.4420    41.9300    72.6410 hn         1 8KI       0.360500
     32 H12         39.2000    42.0280    69.0530 h1         1 8KI       0.068700
     33 H13         39.2310    44.1920    69.4860 ho         1 8KI       0.520000
     34 H14         42.8090    41.1400    69.6620 hc         1 8KI       0.050367
     35 H15         41.6110    41.5200    68.4130 hc         1 8KI       0.050367
     36 H16         42.2140    42.7890    69.4970 hc         1 8KI       0.050367
     37 H17         41.8130    40.9290    71.9650 ho         1 8KI       0.460000
     38 H18         40.1360    39.5830    69.4150 h1         1 8KI       0.045200
     39 H19         39.6520    39.6490    71.1200 h1         1 8KI       0.045200
     40 H20         41.4130    38.1710    70.7310 ho         1 8KI       0.510000
@<TRIPOS>BOND
     1     1     2 1   
     2     1    21 1   
     3     1    22 1   
     4     1    23 1   
     5     2     3 1   
     6     2     7 1   
     7     2    24 1   
     8     3     4 1   
     9     3    12 1   
    10     3    25 1   
    11     4     5 1   
    12     4    26 1   
    13     5     6 2   
    14     5    10 1   
    15     7     8 1   
    16     7    27 1   
    17     7    28 1   
    18     8     9 1   
    19     8    29 1   
    20     8    30 1   
    21     9    10 1   
    22    10    11 1   
    23    10    14 1   
    24    11    12 1   
    25    11    31 1   
    26    12    13 2   
    27    14    15 1   
    28    14    16 1   
    29    14    32 1   
    30    15    33 1   
    31    16    17 1   
    32    16    18 1   
    33    16    19 1   
    34    17    34 1   
    35    17    35 1   
    36    17    36 1   
    37    18    37 1   
    38    19    20 1   
    39    19    38 1   
    40    19    39 1   
    41    20    40 1   
@<TRIPOS>SUBSTRUCTURE
     1 8KI         1 TEMP              0 ****  ****    0 ROOT
