@<TRIPOS>MOLECULE
8KI
   40    41     1     0     0
SMALL
abcg2


@<TRIPOS>ATOM
      1 C12         33.9220    42.1260    72.3410 c3         1 8KI      -0.094100
      2 C09         35.2980    41.7630    72.8880 c3         1 8KI      -0.073700
      3 C02         36.2460    42.9760    72.8090 c6         1 8KI       0.028700
      4 N01         36.3250    43.5690    71.4900 ns         1 8KI      -0.486900
      5 C01         37.1860    43.2110    70.5360 c          1 8KI       0.541000
      6 O01         37.1670    43.6620    69.4020 o          1 8KI      -0.565000
      7 C10         35.8500    40.4810    72.2510 c3         1 8KI      -0.112400
      8 C08         36.3040    40.5410    70.7950 c3         1 8KI       0.165600
      9 O04         37.6700    40.8730    70.5770 os         1 8KI      -0.478000
     10 C04         38.1910    42.1200    70.9480 c6         1 8KI       0.256400
     11 N02         38.4890    42.2280    72.3540 ns         1 8KI      -0.509900
     12 C03         37.6180    42.5860    73.3100 c          1 8KI       0.570000
     13 O02         37.8770    42.5630    74.5010 o          1 8KI      -0.548000
     14 C05         39.4930    42.3180    70.1290 c3         1 8KI       0.199300
     15 O05         39.9270    43.6430    70.3020 oh         1 8KI      -0.692000
     16 C06         40.6950    41.3950    70.4500 c3         1 8KI       0.186000
     17 C11         41.7920    41.6810    69.4170 c3         1 8KI      -0.113100
     18 O06         41.1580    41.7280    71.7520 oh         1 8KI      -0.659000
     19 C07         40.3330    39.9060    70.4140 c3         1 8KI       0.125600
     20 O03         41.5190    39.1790    70.6710 oh         1 8KI      -0.734000
     21 H1          33.5340    43.0300    72.8140 hc         1 8KI       0.039367
     22 H2          33.9340    42.2970    71.2630 hc         1 8KI       0.039367
     23 H3          33.2130    41.3210    72.5360 hc         1 8KI       0.039367
     24 H4          35.1820    41.5550    73.9560 hc         1 8KI       0.073700
     25 H5          35.8620    43.7470    73.4800 h1         1 8KI       0.089700
     26 H6          35.6100    44.2380    71.2370 hn         1 8KI       0.325500
     27 H7          35.0450    39.7420    72.2980 hc         1 8KI       0.058700
     28 H8          36.6580    40.0630    72.8560 hc         1 8KI       0.058700
     29 H9          35.6450    41.1850    70.2010 h1         1 8KI       0.054700
     30 H10         36.2180    39.5430    70.3670 h1         1 8KI       0.054700
     31 H11         39.4240    41.9470    72.6370 hn         1 8KI       0.360500
     32 H12         39.2250    42.1150    69.0860 h1         1 8KI       0.068700
     33 H13         39.4860    44.1920    69.6460 ho         1 8KI       0.520000
     34 H14         42.6900    41.1040    69.6340 hc         1 8KI       0.050367
     35 H15         41.4580    41.4140    68.4130 hc         1 8KI       0.050367
     36 H16         42.0640    42.7350    69.4150 hc         1 8KI       0.050367
     37 H17         41.7850    41.0440    72.0170 ho         1 8KI       0.460000
     38 H18         39.9100    39.6530    69.4340 h1         1 8KI       0.045200
     39 H19         39.5800    39.6790    71.1690 h1         1 8KI       0.045200
     40 H20         41.2720    38.3100    70.9990 ho         1 8KI       0.510000
@<TRIPOS>BOND
     1     1     2 1   
     2     1    21 1   
     3     1    22 1   
     4     1    23 1   
     5     2     3 1   
     6     2     7 1   
     7     2    24 1   
     8     3     4 1   
     9     3    12 1   
    10     3    25 1   
    11     4     5 1   
    12     4    26 1   
    13     5     6 2   
    14     5    10 1   
    15     7     8 1   
    16     7    27 1   
    17     7    28 1   
    18     8     9 1   
    19     8    29 1   
    20     8    30 1   
    21     9    10 1   
    22    10    11 1   
    23    10    14 1   
    24    11    12 1   
    25    11    31 1   
    26    12    13 2   
    27    14    15 1   
    28    14    16 1   
    29    14    32 1   
    30    15    33 1   
    31    16    17 1   
    32    16    18 1   
    33    16    19 1   
    34    17    34 1   
    35    17    35 1   
    36    17    36 1   
    37    18    37 1   
    38    19    20 1   
    39    19    38 1   
    40    19    39 1   
    41    20    40 1   
@<TRIPOS>SUBSTRUCTURE
     1 8KI         1 TEMP              0 ****  ****    0 ROOT
