@<TRIPOS>MOLECULE
8KK
   58    58     1     0     0
SMALL
No Charge or Current Charge


@<TRIPOS>ATOM
      1 C10         -0.2140    -0.5110     0.1080 c3         1 8KK      -0.267000
      2 C11          1.8090     0.7760    -0.7380 c          1 8KK       0.634100
      3 C12          3.9270     1.7780    -1.2200 c3         1 8KK       0.229900
      4 C13          5.3380     1.8070    -0.6470 ca         1 8KK      -0.083300
      5 C14          6.2960     0.8630    -1.0680 ca         1 8KK      -0.085000
      6 C15          7.5990     0.8910    -0.5400 ca         1 8KK      -0.121500
      7 C16          7.9520     1.8630     0.4120 ca         1 8KK      -0.112000
      8 O01          0.4590    -2.6700    -1.4710 o          1 8KK      -0.818000
      9 P01         -0.6570    -1.7110    -1.2450 p5         1 8KK       1.363300
     10 N01         -1.8680    -2.5600    -0.5270 n7         1 8KK      -0.987500
     11 C01         -3.2200    -2.0010    -0.2030 c3         1 8KK       0.178500
     12 C02         -4.1760    -3.1550     0.2130 c3         1 8KK      -0.064400
     13 C03         -4.4530    -4.2410    -0.8690 c3         1 8KK      -0.055700
     14 C04         -5.2910    -5.4000    -0.2830 c3         1 8KK      -0.085600
     15 C05         -5.1280    -3.6670    -2.1390 c3         1 8KK      -0.085600
     16 C06         -3.2300    -0.8680     0.8890 c          1 8KK       0.559100
     17 N02         -3.5640     0.3930     0.4380 ns         1 8KK      -0.507900
     18 C07         -3.5990     1.5860     1.2830 c3         1 8KK       0.108000
     19 C08         -3.6870     2.8770     0.4490 c3         1 8KK      -0.095400
     20 C09         -3.7200     4.1420     1.3270 c3         1 8KK       0.151800
     21 N03         -3.8030     5.3650     0.5090 n8         1 8KK      -0.988200
     22 O02         -2.9640    -1.0740     2.0690 o          1 8KK      -0.656100
     23 O03         -1.2090    -1.0560    -2.4620 o          1 8KK      -0.818000
     24 N04          1.2040    -0.0570     0.1690 ns         1 8KK      -0.447900
     25 O04          3.1150     0.9310    -0.3900 os         1 8KK      -0.466100
     26 C17          7.0000     2.8050     0.8370 ca         1 8KK      -0.121500
     27 C18          5.6970     2.7770     0.3100 ca         1 8KK      -0.085000
     28 O05          1.2580     1.2960    -1.6960 o          1 8KK      -0.562000
     29 H1          -0.8580     0.3660    -0.0220 h1         1 8KK       0.056700
     30 H2          -0.4580    -0.9880     1.0630 h1         1 8KK       0.056700
     31 H3           3.5220     2.7980    -1.2480 h1         1 8KK       0.052200
     32 H4           3.9570     1.3990    -2.2500 h1         1 8KK       0.052200
     33 H5           6.0300     0.1060    -1.8030 ha         1 8KK       0.118000
     34 H6           8.3340     0.1600    -0.8680 ha         1 8KK       0.106000
     35 H7           8.9600     1.8840     0.8200 ha         1 8KK       0.102000
     36 H9          -1.4170    -2.8690     0.3300 hn         1 8KK       0.442000
     37 H10         -3.6440    -1.5450    -1.1070 h1         1 8KK       0.081700
     38 H11         -3.7660    -3.6410     1.1080 hc         1 8KK       0.037700
     39 H12         -5.1350    -2.7180     0.5180 hc         1 8KK       0.037700
     40 H13         -3.4890    -4.6690    -1.1750 hc         1 8KK       0.061700
     41 H14         -6.2770    -5.0450     0.0400 hc         1 8KK       0.026533
     42 H15         -5.4380    -6.1890    -1.0300 hc         1 8KK       0.026533
     43 H16         -4.7860    -5.8460     0.5820 hc         1 8KK       0.026533
     44 H17         -6.0680    -3.1620    -1.8870 hc         1 8KK       0.026533
     45 H18         -4.4730    -2.9500    -2.6470 hc         1 8KK       0.026533
     46 H19         -5.3510    -4.4690    -2.8520 hc         1 8KK       0.026533
     47 H20         -3.7660     0.4930    -0.5510 hn         1 8KK       0.368500
     48 H21         -4.4670     1.5170     1.9520 h1         1 8KK       0.037200
     49 H22         -2.6900     1.6130     1.8980 h1         1 8KK       0.037200
     50 H23         -2.8250     2.9280    -0.2260 hc         1 8KK       0.062700
     51 H24         -4.5900     2.8430    -0.1730 hc         1 8KK       0.062700
     52 H25         -4.5890     4.1080     1.9980 h1         1 8KK       0.023200
     53 H26         -2.8090     4.1920     1.9390 h1         1 8KK       0.023200
     54 H27         -4.6970     5.3680     0.0030 hn         1 8KK       0.379500
     55 H28         -3.8750     6.1790     1.1320 hn         1 8KK       0.379500
     56 H30          1.8130    -0.4140     0.8970 hn         1 8KK       0.327500
     57 H31          7.2720     3.5570     1.5750 ha         1 8KK       0.106000
     58 H32          4.9650     3.5090     0.6460 ha         1 8KK       0.118000
@<TRIPOS>BOND
     1     1     9 1   
     2     1    24 1   
     3     1    29 1   
     4     1    30 1   
     5     2    24 1   
     6     2    25 1   
     7     2    28 2   
     8     3     4 1   
     9     3    25 1   
    10     3    31 1   
    11     3    32 1   
    12     4     5 ar  
    13     4    27 ar  
    14     5     6 ar  
    15     5    33 1   
    16     6     7 ar  
    17     6    34 1   
    18     7    26 ar  
    19     7    35 1   
    20     8     9 1   
    21     9    10 1   
    22     9    23 1   
    23    10    11 1   
    24    10    36 1   
    25    11    12 1   
    26    11    16 1   
    27    11    37 1   
    28    12    13 1   
    29    12    38 1   
    30    12    39 1   
    31    13    14 1   
    32    13    15 1   
    33    13    40 1   
    34    14    41 1   
    35    14    42 1   
    36    14    43 1   
    37    15    44 1   
    38    15    45 1   
    39    15    46 1   
    40    16    17 1   
    41    16    22 2   
    42    17    18 1   
    43    17    47 1   
    44    18    19 1   
    45    18    48 1   
    46    18    49 1   
    47    19    20 1   
    48    19    50 1   
    49    19    51 1   
    50    20    21 1   
    51    20    52 1   
    52    20    53 1   
    53    21    54 1   
    54    21    55 1   
    55    24    56 1   
    56    26    27 ar  
    57    26    57 1   
    58    27    58 1   
@<TRIPOS>SUBSTRUCTURE
     1 8KK         1 TEMP              0 ****  ****    0 ROOT
