@<TRIPOS>MOLECULE
8KK
   58    58     1     0     0
SMALL
bcc


@<TRIPOS>ATOM
      1 C10         -0.0750    -1.1980     1.2550 c3         1 8KK      -0.109200
      2 C11          1.4190     0.6600     0.7090 c          1 8KK       0.750100
      3 C12          3.0290     2.2230    -0.0260 c3         1 8KK       0.206700
      4 C13          4.4750     2.2150    -0.4210 ca         1 8KK      -0.083300
      5 C14          4.8450     2.0450    -1.7520 ca         1 8KK      -0.103000
      6 C15          6.1850     2.0120    -2.1150 ca         1 8KK      -0.139500
      7 C16          7.1700     2.1480    -1.1450 ca         1 8KK      -0.130000
      8 O01          0.2160    -3.1900    -0.5270 o          1 8KK      -0.818000
      9 P01         -0.7200    -2.0390    -0.2570 p5         1 8KK       1.205500
     10 N01         -2.2410    -2.6230     0.2240 n7         1 8KK      -0.932300
     11 C01         -3.4960    -1.9890    -0.1300 c3         1 8KK       0.178500
     12 C02         -4.6520    -2.9780    -0.0550 c3         1 8KK      -0.064400
     13 C03         -4.4410    -4.2490    -0.8800 c3         1 8KK      -0.055700
     14 C04         -5.6770    -5.1370    -0.7880 c3         1 8KK      -0.085600
     15 C05         -4.0980    -3.9460    -2.3350 c3         1 8KK      -0.085600
     16 C06         -3.7460    -0.7460     0.7340 c          1 8KK       0.626100
     17 N02         -3.0790     0.3410     0.3110 ns         1 8KK      -0.574900
     18 C07         -3.0280     1.5860     1.0450 c3         1 8KK       0.108000
     19 C08         -2.6450     2.7320     0.1220 c3         1 8KK      -0.095400
     20 C09         -2.5620     4.0560     0.8630 c3         1 8KK       0.151800
     21 N03         -2.1780     5.1300    -0.0420 n8         1 8KK      -0.877800
     22 O02         -4.4680    -0.7520     1.7240 o          1 8KK      -0.656100
     23 O03         -0.9670    -0.9990    -1.3320 o          1 8KK      -0.818000
     24 N04          1.2360    -0.6370     1.0120 ns         1 8KK      -0.514900
     25 O04          2.6750     0.8730     0.2820 os         1 8KK      -0.442900
     26 C17          6.8100     2.3170     0.1860 ca         1 8KK      -0.139500
     27 C18          5.4690     2.3480     0.5440 ca         1 8KK      -0.103000
     28 O05          0.5940     1.5430     0.8290 o          1 8KK      -0.611000
     29 H1          -0.7420    -0.4000     1.5760 h1         1 8KK       0.056700
     30 H2          -0.0120    -1.9120     2.0800 h1         1 8KK       0.056700
     31 H3           2.8720     2.8660     0.8420 h1         1 8KK       0.052200
     32 H4           2.4070     2.6000    -0.8410 h1         1 8KK       0.052200
     33 H5           4.0800     1.9430    -2.5130 ha         1 8KK       0.136000
     34 H6           6.4590     1.8840    -3.1540 ha         1 8KK       0.124000
     35 H7           8.2150     2.1250    -1.4250 ha         1 8KK       0.120000
     36 H9          -2.2820    -3.2080     1.0470 hn         1 8KK       0.386800
     37 H10         -3.4050    -1.6470    -1.1630 h1         1 8KK       0.081700
     38 H11         -4.8340    -3.2520     0.9890 hc         1 8KK       0.037700
     39 H12         -5.5610    -2.4750    -0.4020 hc         1 8KK       0.037700
     40 H13         -3.5990    -4.7970    -0.4460 hc         1 8KK       0.061700
     41 H14         -6.5460    -4.6500    -1.2370 hc         1 8KK       0.026533
     42 H15         -5.5240    -6.0840    -1.3100 hc         1 8KK       0.026533
     43 H16         -5.9290    -5.3690     0.2490 hc         1 8KK       0.026533
     44 H17         -4.8660    -3.3210    -2.7990 hc         1 8KK       0.026533
     45 H18         -3.1430    -3.4260    -2.4240 hc         1 8KK       0.026533
     46 H19         -4.0260    -4.8660    -2.9170 hc         1 8KK       0.026533
     47 H20         -2.3820     0.1960    -0.4150 hn         1 8KK       0.368500
     48 H21         -4.0050     1.7720     1.4920 h1         1 8KK       0.037200
     49 H22         -2.3050     1.5230     1.8660 h1         1 8KK       0.037200
     50 H23         -1.6760     2.5210    -0.3370 hc         1 8KK       0.062700
     51 H24         -3.3800     2.8050    -0.6860 hc         1 8KK       0.062700
     52 H25         -3.5170     4.2390     1.3790 h1         1 8KK       0.023200
     53 H26         -1.8010     3.9790     1.6440 h1         1 8KK       0.023200
     54 H27         -2.9170     5.2760    -0.7190 hn         1 8KK       0.324300
     55 H28         -2.1130     5.9970     0.4760 hn         1 8KK       0.324300
     56 H30          1.9670    -1.2850     0.7630 hn         1 8KK       0.327500
     57 H31          7.5740     2.4260     0.9450 ha         1 8KK       0.124000
     58 H32          5.1940     2.4850     1.5830 ha         1 8KK       0.136000
@<TRIPOS>BOND
     1     1     9 1   
     2     1    24 1   
     3     1    29 1   
     4     1    30 1   
     5     2    24 1   
     6     2    25 1   
     7     2    28 2   
     8     3     4 1   
     9     3    25 1   
    10     3    31 1   
    11     3    32 1   
    12     4     5 ar  
    13     4    27 ar  
    14     5     6 ar  
    15     5    33 1   
    16     6     7 ar  
    17     6    34 1   
    18     7    26 ar  
    19     7    35 1   
    20     8     9 1   
    21     9    10 1   
    22     9    23 1   
    23    10    11 1   
    24    10    36 1   
    25    11    12 1   
    26    11    16 1   
    27    11    37 1   
    28    12    13 1   
    29    12    38 1   
    30    12    39 1   
    31    13    14 1   
    32    13    15 1   
    33    13    40 1   
    34    14    41 1   
    35    14    42 1   
    36    14    43 1   
    37    15    44 1   
    38    15    45 1   
    39    15    46 1   
    40    16    17 1   
    41    16    22 2   
    42    17    18 1   
    43    17    47 1   
    44    18    19 1   
    45    18    48 1   
    46    18    49 1   
    47    19    20 1   
    48    19    50 1   
    49    19    51 1   
    50    20    21 1   
    51    20    52 1   
    52    20    53 1   
    53    21    54 1   
    54    21    55 1   
    55    24    56 1   
    56    26    27 ar  
    57    26    57 1   
    58    27    58 1   
@<TRIPOS>SUBSTRUCTURE
     1 8KK         1 TEMP              0 ****  ****    0 ROOT
