@<TRIPOS>MOLECULE
8KM
   41    43     1     0     0
SMALL
abcg2


@<TRIPOS>ATOM
      1 CAH         -3.5480     2.4090     2.0580 cx         1 8KM      -0.114400
      2 CAI         -4.4840     1.3500     2.5210 cx         1 8KM      -0.114400
      3 CAG         -4.1880     1.4910     1.0490 cx         1 8KM      -0.105400
      4 CAA         -3.3890     0.4700     0.3410 ca         1 8KM       0.022700
      5 CAB         -2.2980    -0.1490     0.9430 ca         1 8KM      -0.159000
      6 CAF         -3.6910     0.0970    -0.9780 ca         1 8KM      -0.021000
      7 CAJ         -4.7870     0.6900    -1.6700 cg         1 8KM       0.324000
      8 NAK         -5.6700     1.1540    -2.2480 n1         1 8KM      -0.449000
      9 CAE         -2.9360    -0.8690    -1.6480 ca         1 8KM      -0.055000
     10 CAD         -1.8700    -1.4810    -1.0260 ca         1 8KM      -0.102000
     11 CAC         -1.5450    -1.1090     0.2780 ca         1 8KM       0.267000
     12 NAL         -0.4680    -1.7300     0.9450 nu         1 8KM      -0.874100
     13 SAM          1.1010    -1.4850     0.4240 s6         1 8KM       1.167100
     14 OAW          1.9360    -2.2710     1.3140 o          1 8KM      -0.514500
     15 OAV          1.1370    -1.7350    -1.0050 o          1 8KM      -0.514500
     16 CAN          1.4270     0.2640     0.7020 c3         1 8KM      -0.268100
     17 CAO          2.7940     0.6020     0.1980 ca         1 8KM      -0.092300
     18 CAT          3.9010     0.4980     1.0340 ca         1 8KM      -0.081000
     19 CAS          5.1690     0.7970     0.5600 ca         1 8KM      -0.109500
     20 CAR          5.3680     1.1980    -0.7590 ca         1 8KM      -0.059300
     21 CAU          6.7450     1.4940    -1.2750 c3         1 8KM      -0.050800
     22 CAQ          4.2530     1.2980    -1.5900 ca         1 8KM      -0.109500
     23 CAP          2.9830     1.0000    -1.1210 ca         1 8KM      -0.081000
     24 H1          -3.8840     3.4380     2.0650 hc         1 8KM       0.076200
     25 H2          -2.4900     2.2850     2.2540 hc         1 8KM       0.076200
     26 H3          -4.0770     0.4890     3.0350 hc         1 8KM       0.076200
     27 H4          -5.4730     1.6400     2.8500 hc         1 8KM       0.076200
     28 H5          -4.9820     1.9360     0.4620 hc         1 8KM       0.097700
     29 H6          -2.0190     0.1170     1.9560 ha         1 8KM       0.116000
     30 H7          -3.2010    -1.1470    -2.6590 ha         1 8KM       0.135000
     31 H8          -1.3140    -2.2500    -1.5390 ha         1 8KM       0.155000
     32 H9          -0.5290    -1.6980     1.9590 hn         1 8KM       0.488000
     33 H10          0.6440     0.8160     0.1790 h1         1 8KM       0.096200
     34 H11          1.3210     0.4320     1.7740 h1         1 8KM       0.096200
     35 H12          3.7720     0.1980     2.0670 ha         1 8KM       0.119500
     36 H13          6.0170     0.7200     1.2300 ha         1 8KM       0.116000
     37 H14          7.2250     0.5850    -1.6450 hc         1 8KM       0.045367
     38 H15          6.7220     2.2070    -2.0980 hc         1 8KM       0.045367
     39 H16          7.3860     1.8990    -0.4920 hc         1 8KM       0.045367
     40 H17          4.3780     1.6150    -2.6180 ha         1 8KM       0.116000
     41 H18          2.1320     1.0910    -1.7840 ha         1 8KM       0.119500
@<TRIPOS>BOND
     1     1     2 1   
     2     1     3 1   
     3     1    24 1   
     4     1    25 1   
     5     2     3 1   
     6     2    26 1   
     7     2    27 1   
     8     3     4 1   
     9     3    28 1   
    10     4     5 ar  
    11     4     6 ar  
    12     5    11 ar  
    13     5    29 1   
    14     6     7 1   
    15     6     9 ar  
    16     7     8 3   
    17     9    10 ar  
    18     9    30 1   
    19    10    11 ar  
    20    10    31 1   
    21    11    12 1   
    22    12    13 1   
    23    12    32 1   
    24    13    14 2   
    25    13    15 2   
    26    13    16 1   
    27    16    17 1   
    28    16    33 1   
    29    16    34 1   
    30    17    18 ar  
    31    17    23 ar  
    32    18    19 ar  
    33    18    35 1   
    34    19    20 ar  
    35    19    36 1   
    36    20    21 1   
    37    20    22 ar  
    38    21    37 1   
    39    21    38 1   
    40    21    39 1   
    41    22    23 ar  
    42    22    40 1   
    43    23    41 1   
@<TRIPOS>SUBSTRUCTURE
     1 8KM         1 TEMP              0 ****  ****    0 ROOT
