@<TRIPOS>MOLECULE
8KM
   41    43     1     0     0
SMALL
No Charge or Current Charge


@<TRIPOS>ATOM
      1 CAH         -4.7100     1.8180     2.6320 cx         1 8KM      -0.114400
      2 CAI         -5.3320     0.4430     2.6460 cx         1 8KM      -0.114400
      3 CAG         -4.9110     1.0680     1.3310 cx         1 8KM      -0.105400
      4 CAA         -3.7420     0.5320     0.5140 ca         1 8KM       0.022700
      5 CAB         -2.6020     0.0220     1.1800 ca         1 8KM      -0.159000
      6 CAF         -3.7500     0.5230    -0.9090 ca         1 8KM      -0.021000
      7 CAJ         -4.8620     1.0190    -1.6790 cg         1 8KM       0.324000
      8 NAK         -5.7570     1.4180    -2.3140 n1         1 8KM      -0.449000
      9 CAE         -2.6430     0.0120    -1.6130 ca         1 8KM      -0.055000
     10 CAD         -1.5260    -0.4870    -0.9270 ca         1 8KM      -0.102000
     11 CAC         -1.4960    -0.4790     0.4770 ca         1 8KM       0.267000
     12 NAL         -0.4150    -0.9600     1.2150 nu         1 8KM      -0.874100
     13 SAM          1.1850    -1.1080     0.7830 s6         1 8KM       1.167100
     14 OAW          1.8780    -1.4140     2.0360 o          1 8KM      -0.514500
     15 OAV          1.2250    -2.0530    -0.3370 o          1 8KM      -0.514500
     16 CAN          1.6780     0.5330     0.2200 c3         1 8KM      -0.268100
     17 CAO          3.1340     0.6370    -0.2160 ca         1 8KM      -0.092300
     18 CAT          4.1320     0.9790     0.7150 ca         1 8KM      -0.081000
     19 CAS          5.4750     1.0760     0.3120 ca         1 8KM      -0.109500
     20 CAR          5.8340     0.8330    -1.0270 ca         1 8KM      -0.059300
     21 CAU          7.2880     0.9330    -1.4620 c3         1 8KM      -0.050800
     22 CAQ          4.8360     0.4890    -1.9580 ca         1 8KM      -0.109500
     23 CAP          3.4920     0.3930    -1.5550 ca         1 8KM      -0.081000
     24 H1          -5.3590     2.6690     2.8290 hc         1 8KM       0.076200
     25 H2          -3.7000     1.9260     3.0190 hc         1 8KM       0.076200
     26 H3          -4.7430    -0.3800     3.0420 hc         1 8KM       0.076200
     27 H4          -6.3970     0.3720     2.8510 hc         1 8KM       0.076200
     28 H5          -5.7340     1.4340     0.7230 hc         1 8KM       0.097700
     29 H6          -2.5680     0.0150     2.2650 ha         1 8KM       0.116000
     30 H7          -2.6470    -0.0030    -2.7020 ha         1 8KM       0.135000
     31 H8          -0.6960    -0.8830    -1.5030 ha         1 8KM       0.155000
     32 H9          -0.4230    -0.8230     2.2170 hn         1 8KM       0.488000
     33 H10          1.0100     0.7860    -0.6090 h1         1 8KM       0.096200
     34 H11          1.4750     1.2110     1.0550 h1         1 8KM       0.096200
     35 H12          3.8680     1.1700     1.7540 ha         1 8KM       0.119500
     36 H13          6.2370     1.3390     1.0420 ha         1 8KM       0.116000
     37 H14          7.7950    -0.0330    -1.3550 hc         1 8KM       0.045367
     38 H15          7.3710     1.2410    -2.5120 hc         1 8KM       0.045367
     39 H16          7.8360     1.6680    -0.8610 hc         1 8KM       0.045367
     40 H17          5.1000     0.2950    -2.9950 ha         1 8KM       0.116000
     41 H18          2.7310     0.1260    -2.2850 ha         1 8KM       0.119500
@<TRIPOS>BOND
     1     1     2 1   
     2     1     3 1   
     3     1    24 1   
     4     1    25 1   
     5     2     3 1   
     6     2    26 1   
     7     2    27 1   
     8     3     4 1   
     9     3    28 1   
    10     4     5 ar  
    11     4     6 ar  
    12     5    11 ar  
    13     5    29 1   
    14     6     7 1   
    15     6     9 ar  
    16     7     8 3   
    17     9    10 ar  
    18     9    30 1   
    19    10    11 ar  
    20    10    31 1   
    21    11    12 1   
    22    12    13 1   
    23    12    32 1   
    24    13    14 2   
    25    13    15 2   
    26    13    16 1   
    27    16    17 1   
    28    16    33 1   
    29    16    34 1   
    30    17    18 ar  
    31    17    23 ar  
    32    18    19 ar  
    33    18    35 1   
    34    19    20 ar  
    35    19    36 1   
    36    20    21 1   
    37    20    22 ar  
    38    21    37 1   
    39    21    38 1   
    40    21    39 1   
    41    22    23 ar  
    42    22    40 1   
    43    23    41 1   
@<TRIPOS>SUBSTRUCTURE
     1 8KM         1 TEMP              0 ****  ****    0 ROOT
