@<TRIPOS>MOLECULE
8KN
   63    63     1     0     0
SMALL
No Charge or Current Charge


@<TRIPOS>ATOM
      1 C10          1.5370     4.0970     1.3930 c3         1 8KN       0.157800
      2 C11          4.6530     1.3490    -1.6200 c          1 8KN       0.712000
      3 C12         -0.2900    -0.7450     0.2150 c3         1 8KN      -0.242000
      4 C13         -2.1620     0.8180    -0.4990 c          1 8KN       0.629100
      5 C14         -4.1720     2.0470    -0.9110 c3         1 8KN       0.231900
      6 C15         -5.6350     2.0280    -0.4870 ca         1 8KN      -0.084300
      7 C16         -6.5790     1.2830    -1.2210 ca         1 8KN      -0.089000
      8 C19         -7.4070     2.7390     1.0350 ca         1 8KN      -0.124500
      9 C20         -6.0560     2.7550     0.6450 ca         1 8KN      -0.089000
     10 O01          0.7580    -1.1990     2.7640 o          1 8KN      -0.834000
     11 N01          1.3710    -2.7970     0.9300 n7         1 8KN      -0.975500
     12 C01          2.7260    -2.2600     0.5920 c3         1 8KN       0.180500
     13 C02          3.6570    -3.4330     0.1750 c3         1 8KN      -0.084400
     14 C03          3.9040    -4.5350     1.2480 c3         1 8KN      -0.059700
     15 C04          4.7560    -5.6850     0.6650 c3         1 8KN      -0.085100
     16 C05          4.5470    -3.9820     2.5430 c3         1 8KN      -0.085100
     17 C06          2.7590    -1.1190    -0.4970 c          1 8KN       0.594100
     18 N02          3.1520     0.1210    -0.0260 ns         1 8KN      -0.451900
     19 C07          3.2860     1.3390    -0.8610 c3         1 8KN      -0.027300
     20 O04          2.4810    -1.3000    -1.6800 o          1 8KN      -0.659100
     21 O05         -0.9220    -2.8450     1.9420 o          1 8KN      -0.834000
     22 N04         -1.6950    -0.2510     0.2190 ns         1 8KN      -0.430900
     23 O06         -3.4900     0.9710    -0.2460 os         1 8KN      -0.472100
     24 C17         -7.9300     1.2680    -0.8310 ca         1 8KN      -0.124500
     25 C18         -8.3440     1.9970     0.2970 ca         1 8KN      -0.122000
     26 O07         -1.4920     1.5150    -1.2460 o          1 8KN      -0.584000
     27 C08          3.0980     2.6300    -0.0260 c3         1 8KN      -0.064400
     28 C09          1.7100     2.7600     0.6470 c3         1 8KN      -0.097400
     29 N03          0.2150     4.1970     2.0290 n8         1 8KN      -1.002200
     30 H1           2.3050     4.1930     2.1710 h1         1 8KN       0.006200
     31 H2           1.6450     4.9330     0.6880 h1         1 8KN       0.006200
     32 H3           0.3900     0.1100     0.2740 h1         1 8KN       0.065200
     33 H4          -0.1090    -1.2810    -0.7230 h1         1 8KN       0.065200
     34 H5          -4.1050     1.9340    -2.0020 h1         1 8KN       0.045700
     35 H6          -3.7250     3.0140    -0.6440 h1         1 8KN       0.045700
     36 H7          -6.2650     0.7140    -2.0950 ha         1 8KN       0.131000
     37 H8          -7.7270     3.3020     1.9090 ha         1 8KN       0.102500
     38 H9          -5.3360     3.3300     1.2230 ha         1 8KN       0.131000
     39 H10          1.4710    -3.4600     1.6910 hn         1 8KN       0.435000
     40 H11          3.1580    -1.8140     1.4970 h1         1 8KN       0.036700
     41 H12          3.2410    -3.9010    -0.7260 hc         1 8KN       0.048700
     42 H13          4.6270    -3.0130    -0.1200 hc         1 8KN       0.048700
     43 H14          2.9350    -4.9710     1.5220 hc         1 8KN       0.042700
     44 H15          5.7510    -5.3260     0.3740 hc         1 8KN       0.024200
     45 H16          4.8830    -6.4870     1.4020 hc         1 8KN       0.024200
     46 H17          4.2740    -6.1150    -0.2210 hc         1 8KN       0.024200
     47 H18          5.4930    -3.4730     2.3230 hc         1 8KN       0.024200
     48 H19          3.8810    -3.2730     3.0470 hc         1 8KN       0.024200
     49 H20          4.7530    -4.7960     3.2490 hc         1 8KN       0.024200
     50 H21          3.3960     0.1810     0.9550 hn         1 8KN       0.328500
     51 H22          2.4960     1.3160    -1.6230 h1         1 8KN       0.055700
     52 H25         -2.3870    -0.7290     0.7860 hn         1 8KN       0.329500
     53 H26         -8.6540     0.6920    -1.4020 ha         1 8KN       0.102500
     54 H27         -9.3890     1.9850     0.5990 ha         1 8KN       0.094000
     55 H28          3.8790     2.6820     0.7430 hc         1 8KN       0.031200
     56 H29          3.2500     3.4940    -0.6850 hc         1 8KN       0.031200
     57 H30          1.5670     1.9360     1.3560 hc         1 8KN       0.072200
     58 H31          0.9300     2.6670    -0.1180 hc         1 8KN       0.072200
     59 H32          0.1170     5.1310     2.4450 hn         1 8KN       0.380500
     60 H33         -0.5050     4.1790     1.2980 hn         1 8KN       0.380500
     61 O02          5.6750     1.0870    -0.9980 o          1 8KN      -0.742500
     62 O03          4.6460     1.5700    -2.8240 o          1 8KN      -0.742500
     63 P01          0.1720    -1.8990     1.5920 p5         1 8KN       1.368300
@<TRIPOS>BOND
     1     1    28 1   
     2     1    29 1   
     3     1    30 1   
     4     1    31 1   
     5     2    19 1   
     6     2    61 1   
     7     2    62 1   
     8     3    22 1   
     9     3    32 1   
    10     3    33 1   
    11     3    63 1   
    12     4    22 1   
    13     4    23 1   
    14     4    26 2   
    15     5     6 1   
    16     5    23 1   
    17     5    34 1   
    18     5    35 1   
    19     6     7 ar  
    20     6     9 ar  
    21     7    24 ar  
    22     7    36 1   
    23     8     9 ar  
    24     8    25 ar  
    25     8    37 1   
    26     9    38 1   
    27    10    63 1   
    28    11    12 1   
    29    11    39 1   
    30    11    63 1   
    31    12    13 1   
    32    12    17 1   
    33    12    40 1   
    34    13    14 1   
    35    13    41 1   
    36    13    42 1   
    37    14    15 1   
    38    14    16 1   
    39    14    43 1   
    40    15    44 1   
    41    15    45 1   
    42    15    46 1   
    43    16    47 1   
    44    16    48 1   
    45    16    49 1   
    46    17    18 1   
    47    17    20 2   
    48    18    19 1   
    49    18    50 1   
    50    19    27 1   
    51    19    51 1   
    52    21    63 1   
    53    22    52 1   
    54    24    25 ar  
    55    24    53 1   
    56    25    54 1   
    57    27    28 1   
    58    27    55 1   
    59    27    56 1   
    60    28    57 1   
    61    28    58 1   
    62    29    59 1   
    63    29    60 1   
@<TRIPOS>SUBSTRUCTURE
     1 8KN         1 TEMP              0 ****  ****    0 ROOT
