@<TRIPOS>MOLECULE
8KN
   63    63     1     0     0
SMALL
abcg2


@<TRIPOS>ATOM
      1 C10          0.2070     3.3720     0.2490 c3         1 8KN       0.157800
      2 C11          5.0090     2.0100     0.7360 c          1 8KN       0.712000
      3 C12         -0.7000    -1.4870    -0.6510 c3         1 8KN      -0.242000
      4 C13         -2.5830    -0.0190    -1.1840 c          1 8KN       0.629100
      5 C14         -4.4940     1.3930    -1.3360 c3         1 8KN       0.231900
      6 C15         -5.3120     2.0800    -0.2830 ca         1 8KN      -0.084300
      7 C16         -6.6950     2.1530    -0.3900 ca         1 8KN      -0.089000
      8 C19         -5.4320     3.3090     1.7900 ca         1 8KN      -0.124500
      9 C20         -4.6830     2.6640     0.8170 ca         1 8KN      -0.089000
     10 O01          0.2450    -0.9320     1.8490 o          1 8KN      -0.834000
     11 N01          1.4740    -2.7770     0.4610 n7         1 8KN      -0.975500
     12 C01          2.7200    -2.1100     0.7450 c3         1 8KN       0.180500
     13 C02          3.9100    -2.9670     0.3010 c3         1 8KN      -0.084400
     14 C03          4.1190    -4.2670     1.0820 c3         1 8KN      -0.059700
     15 C04          5.2840    -5.0390     0.4700 c3         1 8KN      -0.085100
     16 C05          4.3620    -4.0100     2.5660 c3         1 8KN      -0.085100
     17 C06          2.8030    -0.7850    -0.0140 c          1 8KN       0.594100
     18 N02          3.3280     0.2210     0.6910 ns         1 8KN      -0.451900
     19 C07          3.6530     1.5270     0.1700 c3         1 8KN      -0.027300
     20 O04          2.4690    -0.6970    -1.1900 o          1 8KN      -0.659100
     21 O05         -0.9300    -3.2310     1.3920 o          1 8KN      -0.834000
     22 N04         -2.0410    -0.9910    -0.4420 ns         1 8KN      -0.430900
     23 O06         -3.7940     0.3190    -0.7120 os         1 8KN      -0.472100
     24 C17         -7.4470     2.8050     0.5820 ca         1 8KN      -0.124500
     25 C18         -6.8160     3.3820     1.6750 ca         1 8KN      -0.122000
     26 O07         -2.0660     0.4970    -2.1580 o          1 8KN      -0.584000
     27 C08          2.5750     2.5690     0.4990 c3         1 8KN      -0.064400
     28 C09          1.1680     2.2120     0.0380 c3         1 8KN      -0.097400
     29 N03         -1.1640     2.9980    -0.0740 n8         1 8KN      -1.002200
     30 H1           0.2440     3.6840     1.2980 h1         1 8KN       0.006200
     31 H2           0.5690     4.2320    -0.3340 h1         1 8KN       0.006200
     32 H3          -0.0670    -0.6830    -1.0210 h1         1 8KN       0.065200
     33 H4          -0.6820    -2.2900    -1.3960 h1         1 8KN       0.065200
     34 H5          -5.1320     1.0020    -2.1320 h1         1 8KN       0.045700
     35 H6          -3.7930     2.0940    -1.7920 h1         1 8KN       0.045700
     36 H7          -7.1930     1.6960    -1.2370 ha         1 8KN       0.131000
     37 H8          -4.9350     3.7590     2.6400 ha         1 8KN       0.102500
     38 H9          -3.6030     2.6190     0.9070 ha         1 8KN       0.131000
     39 H10          1.5220    -3.7840     0.5070 hn         1 8KN       0.435000
     40 H11          2.8360    -1.8930     1.8150 h1         1 8KN       0.036700
     41 H12          3.7970    -3.1930    -0.7640 hc         1 8KN       0.048700
     42 H13          4.8210    -2.3660     0.3980 hc         1 8KN       0.048700
     43 H14          3.2250    -4.8960     0.9890 hc         1 8KN       0.042700
     44 H15          6.2050    -4.4510     0.5130 hc         1 8KN       0.024200
     45 H16          5.4650    -5.9750     1.0010 hc         1 8KN       0.024200
     46 H17          5.0950    -5.2820    -0.5770 hc         1 8KN       0.024200
     47 H18          5.1970    -3.3190     2.7090 hc         1 8KN       0.024200
     48 H19          3.4900    -3.5830     3.0610 hc         1 8KN       0.024200
     49 H20          4.6060    -4.9380     3.0870 hc         1 8KN       0.024200
     50 H21          3.6440     0.0410     1.6310 hn         1 8KN       0.328500
     51 H22          3.7330     1.4450    -0.9160 h1         1 8KN       0.055700
     52 H25         -2.5910    -1.3950     0.3000 hn         1 8KN       0.329500
     53 H26         -8.5230     2.8560     0.4860 ha         1 8KN       0.102500
     54 H27         -7.3980     3.8870     2.4350 ha         1 8KN       0.094000
     55 H28          2.5650     2.7410     1.5810 hc         1 8KN       0.031200
     56 H29          2.8840     3.5130     0.0420 hc         1 8KN       0.031200
     57 H30          0.8020     1.3280     0.5680 hc         1 8KN       0.072200
     58 H31          1.1830     1.9500    -1.0250 hc         1 8KN       0.072200
     59 H32         -1.7360     3.8290    -0.1520 hn         1 8KN       0.380500
     60 H33         -1.1880     2.5570    -0.9850 hn         1 8KN       0.380500
     61 O02          5.4610     1.4100     1.7310 o          1 8KN      -0.742500
     62 O03          5.5130     2.9920     0.1600 o          1 8KN      -0.742500
     63 P01         -0.0170    -2.1110     0.9460 p5         1 8KN       1.368300
@<TRIPOS>BOND
     1     1    28 1   
     2     1    29 1   
     3     1    30 1   
     4     1    31 1   
     5     2    19 1   
     6     2    61 1   
     7     2    62 1   
     8     3    22 1   
     9     3    32 1   
    10     3    33 1   
    11     3    63 1   
    12     4    22 1   
    13     4    23 1   
    14     4    26 2   
    15     5     6 1   
    16     5    23 1   
    17     5    34 1   
    18     5    35 1   
    19     6     7 ar  
    20     6     9 ar  
    21     7    24 ar  
    22     7    36 1   
    23     8     9 ar  
    24     8    25 ar  
    25     8    37 1   
    26     9    38 1   
    27    10    63 1   
    28    11    12 1   
    29    11    39 1   
    30    11    63 1   
    31    12    13 1   
    32    12    17 1   
    33    12    40 1   
    34    13    14 1   
    35    13    41 1   
    36    13    42 1   
    37    14    15 1   
    38    14    16 1   
    39    14    43 1   
    40    15    44 1   
    41    15    45 1   
    42    15    46 1   
    43    16    47 1   
    44    16    48 1   
    45    16    49 1   
    46    17    18 1   
    47    17    20 2   
    48    18    19 1   
    49    18    50 1   
    50    19    27 1   
    51    19    51 1   
    52    21    63 1   
    53    22    52 1   
    54    24    25 ar  
    55    24    53 1   
    56    25    54 1   
    57    27    28 1   
    58    27    55 1   
    59    27    56 1   
    60    28    57 1   
    61    28    58 1   
    62    29    59 1   
    63    29    60 1   
@<TRIPOS>SUBSTRUCTURE
     1 8KN         1 TEMP              0 ****  ****    0 ROOT
