@<TRIPOS>MOLECULE
8KO
   48    48     1     0     0
SMALL
No Charge or Current Charge


@<TRIPOS>ATOM
      1 N           -2.3230    -1.2910     1.5290 n8         1 8KO      -0.995200
      2 CA          -1.8110    -0.7060     0.2530 c3         1 8KO       0.146500
      3 CB          -2.9490    -0.6850    -0.7970 c3         1 8KO      -0.068100
      4 CG          -4.1850     0.0830    -0.3340 ca         1 8KO      -0.087300
      5 CD2         -5.3740    -0.6020    -0.0120 ca         1 8KO      -0.109500
      6 CE2         -6.5090     0.1090     0.4150 ca         1 8KO      -0.106500
      7 CZ          -6.4640     1.5090     0.5220 ca         1 8KO      -0.108000
      8 CE1         -5.2830     2.1980     0.1990 ca         1 8KO      -0.106500
      9 CD1         -4.1470     1.4870    -0.2270 ca         1 8KO      -0.109500
     10 C           -0.5570    -1.4890    -0.2460 c3         1 8KO       0.105300
     11 O           -0.6150    -2.7850     0.3850 oh         1 8KO      -0.653000
     12 C10          0.7650    -0.7160     0.0670 c          1 8KO       0.584100
     13 O2           1.0870    -0.3680     1.1970 o          1 8KO      -0.601100
     14 N2           1.5510    -0.4300    -1.0340 ns         1 8KO      -0.483900
     15 C11          2.8520     0.2820    -1.0010 c3         1 8KO       0.036700
     16 C12          4.0320    -0.7250    -1.1350 c3         1 8KO      -0.088400
     17 C13          4.2070    -1.7300     0.0380 c3         1 8KO      -0.059700
     18 C14          5.2440    -2.8190    -0.3190 c3         1 8KO      -0.091100
     19 C15          4.5890    -1.0340     1.3670 c3         1 8KO      -0.091100
     20 C16          2.9010     1.3580    -2.1280 c          1 8KO       0.591100
     21 O3           2.1090     1.3810    -3.0650 o          1 8KO      -0.559100
     22 N3           3.9030     2.3150    -1.9860 ns         1 8KO      -0.380400
     23 O4           4.2340     3.2170    -3.0710 oh         1 8KO      -0.428100
     24 H1          -1.8760    -0.8050     2.3190 hn         1 8KO       0.407000
     25 H2          -3.3090    -1.0140     1.6270 hn         1 8KO       0.407000
     26 H4          -1.5320     0.3420     0.4420 h1         1 8KO       0.060700
     27 H5          -2.5690    -0.2320    -1.7200 hc         1 8KO       0.058700
     28 H6          -3.2160    -1.7170    -1.0570 hc         1 8KO       0.058700
     29 H7          -5.4200    -1.6860    -0.0910 ha         1 8KO       0.109500
     30 H8          -7.4240    -0.4260     0.6630 ha         1 8KO       0.113500
     31 H9          -7.3430     2.0590     0.8520 ha         1 8KO       0.114000
     32 H10         -5.2470     3.2830     0.2800 ha         1 8KO       0.113500
     33 H11         -3.2380     2.0300    -0.4760 ha         1 8KO       0.109500
     34 H12         -0.6120    -1.5980    -1.3370 h1         1 8KO       0.068700
     35 H13         -1.3310    -2.6070     1.0580 ho         1 8KO       0.477000
     36 H14          1.1990    -0.7290    -1.9370 hn         1 8KO       0.322500
     37 H15          2.9440     0.8280    -0.0550 h1         1 8KO       0.076700
     38 H16          3.8960    -1.2860    -2.0690 hc         1 8KO       0.058700
     39 H17          5.3330    -3.5520     0.4920 hc         1 8KO       0.036367
     40 H18          4.9450    -3.3580    -1.2270 hc         1 8KO       0.036367
     41 H19          6.2330    -2.3770    -0.4920 hc         1 8KO       0.036367
     42 H20          4.7100    -1.7730     2.1680 hc         1 8KO       0.036367
     43 H21          5.5340    -0.4860     1.2630 hc         1 8KO       0.036367
     44 H22          3.8160    -0.3270     1.6860 hc         1 8KO       0.036367
     45 H23          4.6210     2.1880    -1.2730 hn         1 8KO       0.335500
     46 H24          4.2320     4.1070    -2.6450 ho         1 8KO       0.450000
     47 H3           4.9700    -0.1690    -1.2520 hc         1 8KO       0.058700
     48 H25          3.2500    -2.2440     0.1960 hc         1 8KO       0.045700
@<TRIPOS>BOND
     1     1     2 1   
     2     1    24 1   
     3     1    25 1   
     4     2     3 1   
     5     2    10 1   
     6     2    26 1   
     7     3     4 1   
     8     3    27 1   
     9     3    28 1   
    10     4     5 ar  
    11     4     9 ar  
    12     5     6 ar  
    13     5    29 1   
    14     6     7 ar  
    15     6    30 1   
    16     7     8 ar  
    17     7    31 1   
    18     8     9 ar  
    19     8    32 1   
    20     9    33 1   
    21    10    11 1   
    22    10    12 1   
    23    10    34 1   
    24    11    35 1   
    25    12    13 2   
    26    12    14 1   
    27    14    15 1   
    28    14    36 1   
    29    15    16 1   
    30    15    20 1   
    31    15    37 1   
    32    16    17 1   
    33    16    38 1   
    34    16    47 1   
    35    17    18 1   
    36    17    19 1   
    37    17    48 1   
    38    18    39 1   
    39    18    40 1   
    40    18    41 1   
    41    19    42 1   
    42    19    43 1   
    43    19    44 1   
    44    20    21 2   
    45    20    22 1   
    46    22    23 1   
    47    22    45 1   
    48    23    46 1   
@<TRIPOS>SUBSTRUCTURE
     1 8KO         1 TEMP              0 ****  ****    0 ROOT
