@<TRIPOS>MOLECULE
8KO
   48    48     1     0     0
SMALL
abcg2


@<TRIPOS>ATOM
      1 N           -1.6800     0.8880     1.2840 n8         1 8KO      -0.995200
      2 CA          -1.5020    -0.4240     0.6990 c3         1 8KO       0.146500
      3 CB          -2.7880    -1.2610     0.5630 c3         1 8KO      -0.068100
      4 CG          -3.8280    -0.5510    -0.2530 ca         1 8KO      -0.087300
      5 CD2         -4.8340     0.1990     0.3540 ca         1 8KO      -0.109500
      6 CE2         -5.7640     0.8970    -0.4060 ca         1 8KO      -0.106500
      7 CZ          -5.7000     0.8590    -1.7930 ca         1 8KO      -0.108000
      8 CE1         -4.7020     0.1160    -2.4110 ca         1 8KO      -0.106500
      9 CD1         -3.7760    -0.5810    -1.6460 ca         1 8KO      -0.109500
     10 C           -0.4500    -1.1940     1.5140 c3         1 8KO       0.105300
     11 O           -0.8280    -1.3320     2.8530 oh         1 8KO      -0.653000
     12 C10          0.8940    -0.4780     1.4270 c          1 8KO       0.584100
     13 O2           1.3520     0.1320     2.3820 o          1 8KO      -0.601100
     14 N2           1.5270    -0.5770     0.2510 ns         1 8KO      -0.483900
     15 C11          2.7410     0.1420    -0.0360 c3         1 8KO       0.036700
     16 C12          3.3290    -0.3380    -1.3640 c3         1 8KO      -0.088400
     17 C13          3.7360    -1.8150    -1.3880 c3         1 8KO      -0.059700
     18 C14          4.1750    -2.1940    -2.7990 c3         1 8KO      -0.091100
     19 C15          4.8370    -2.1240    -0.3800 c3         1 8KO      -0.091100
     20 C16          2.4560     1.6410    -0.1280 c          1 8KO       0.591100
     21 O3           1.4660     2.0880    -0.6700 o          1 8KO      -0.559100
     22 N3           3.4190     2.3910     0.4350 ns         1 8KO      -0.380400
     23 O4           3.4520     3.7340     0.2130 oh         1 8KO      -0.428100
     24 H1          -2.1920     1.4860     0.6490 hn         1 8KO       0.407000
     25 H2          -2.2400     0.8250     2.1260 hn         1 8KO       0.407000
     26 H4          -1.0990    -0.2780    -0.3080 h1         1 8KO       0.060700
     27 H5          -2.5370    -2.2160     0.0940 hc         1 8KO       0.058700
     28 H6          -3.1800    -1.4870     1.5580 hc         1 8KO       0.058700
     29 H7          -4.8970     0.2310     1.4360 ha         1 8KO       0.109500
     30 H8          -6.5400     1.4680     0.0860 ha         1 8KO       0.113500
     31 H9          -6.4240     1.4000    -2.3870 ha         1 8KO       0.114000
     32 H10         -4.6460     0.0760    -3.4920 ha         1 8KO       0.113500
     33 H11         -3.0020    -1.1580    -2.1390 ha         1 8KO       0.109500
     34 H12         -0.3390    -2.1970     1.0840 h1         1 8KO       0.068700
     35 H13         -0.4080    -0.6130     3.3440 ho         1 8KO       0.477000
     36 H14          1.0670    -1.0480    -0.5120 hn         1 8KO       0.322500
     37 H15          3.4610    -0.0420     0.7670 h1         1 8KO       0.076700
     38 H16          2.6000    -0.1440    -2.1570 hc         1 8KO       0.058700
     39 H17          4.4470    -3.2490    -2.8550 hc         1 8KO       0.036367
     40 H18          3.3810    -2.0160    -3.5250 hc         1 8KO       0.036367
     41 H19          5.0460    -1.6110    -3.1080 hc         1 8KO       0.036367
     42 H20          5.1310    -3.1730    -0.4380 hc         1 8KO       0.036367
     43 H21          5.7260    -1.5200    -0.5780 hc         1 8KO       0.036367
     44 H22          4.5270    -1.9340     0.6490 hc         1 8KO       0.036367
     45 H23          4.2840     1.9970     0.7740 hn         1 8KO       0.335500
     46 H24          3.0580     4.1450     0.9940 ho         1 8KO       0.450000
     47 H3           4.2060     0.2740    -1.5960 hc         1 8KO       0.058700
     48 H25          2.8610    -2.4250    -1.1370 hc         1 8KO       0.045700
@<TRIPOS>BOND
     1     1     2 1   
     2     1    24 1   
     3     1    25 1   
     4     2     3 1   
     5     2    10 1   
     6     2    26 1   
     7     3     4 1   
     8     3    27 1   
     9     3    28 1   
    10     4     5 ar  
    11     4     9 ar  
    12     5     6 ar  
    13     5    29 1   
    14     6     7 ar  
    15     6    30 1   
    16     7     8 ar  
    17     7    31 1   
    18     8     9 ar  
    19     8    32 1   
    20     9    33 1   
    21    10    11 1   
    22    10    12 1   
    23    10    34 1   
    24    11    35 1   
    25    12    13 2   
    26    12    14 1   
    27    14    15 1   
    28    14    36 1   
    29    15    16 1   
    30    15    20 1   
    31    15    37 1   
    32    16    17 1   
    33    16    38 1   
    34    16    47 1   
    35    17    18 1   
    36    17    19 1   
    37    17    48 1   
    38    18    39 1   
    39    18    40 1   
    40    18    41 1   
    41    19    42 1   
    42    19    43 1   
    43    19    44 1   
    44    20    21 2   
    45    20    22 1   
    46    22    23 1   
    47    22    45 1   
    48    23    46 1   
@<TRIPOS>SUBSTRUCTURE
     1 8KO         1 TEMP              0 ****  ****    0 ROOT
