@<TRIPOS>MOLECULE
8KP
   43    44     1     0     0
SMALL
No Charge or Current Charge


@<TRIPOS>ATOM
      1 CAT          6.0710     1.6520     0.7770 c3         1 8KP      -0.087100
      2 CAS          4.9590     1.0240     1.6410 c3         1 8KP      -0.040100
      3 CAO          3.8000     0.4820     0.7970 ca         1 8KP      -0.007300
      4 CAK          2.6740     1.3060     0.6070 ca         1 8KP      -0.165000
      5 CAN          3.8270    -0.8060     0.2010 ca         1 8KP      -0.037000
      6 CAQ          4.9710    -1.6690     0.3730 cg         1 8KP       0.328000
      7 NAR          5.8920    -2.3750     0.5070 n1         1 8KP      -0.457000
      8 CAM          2.7240    -1.2420    -0.5760 ca         1 8KP      -0.006300
      9 CAP          2.7070    -2.6180    -1.2450 c3         1 8KP      -0.059800
     10 CAL          1.6120    -0.3940    -0.7440 ca         1 8KP      -0.140000
     11 CAJ          1.5780     0.8780    -0.1510 ca         1 8KP       0.289000
     12 NAI          0.5000     1.7490    -0.2900 nu         1 8KP      -0.878100
     13 SAH         -1.0980     1.4160    -0.6070 s6         1 8KP       1.172100
     14 OAU         -1.7930     2.6800    -0.3580 o          1 8KP      -0.515500
     15 OAV         -1.1370     0.7980    -1.9350 o          1 8KP      -0.515500
     16 CAG         -1.5900     0.2150     0.6450 c3         1 8KP      -0.265100
     17 CAE         -3.0440    -0.2330     0.5520 ca         1 8KP      -0.094300
     18 CAD         -4.0480     0.4650     1.2480 ca         1 8KP      -0.081000
     19 CAC         -5.3880     0.0510     1.1610 ca         1 8KP      -0.110000
     20 CAB         -5.7380    -1.0660     0.3800 ca         1 8KP      -0.059300
     21 CAW         -7.1900    -1.5120     0.2840 c3         1 8KP      -0.050800
     22 CAA         -4.7330    -1.7630    -0.3160 ca         1 8KP      -0.110000
     23 CAF         -3.3930    -1.3490    -0.2300 ca         1 8KP      -0.081000
     24 H1           6.8730     2.0460     1.4130 hc         1 8KP       0.041033
     25 H2           6.5050     0.9100     0.0970 hc         1 8KP       0.041033
     26 H3           5.6710     2.4780     0.1760 hc         1 8KP       0.041033
     27 H4           5.3900     0.2390     2.2740 hc         1 8KP       0.054200
     28 H5           4.5910     1.7870     2.3390 hc         1 8KP       0.054200
     29 H6           2.6550     2.2950     1.0580 ha         1 8KP       0.118000
     30 H7           2.7950    -3.4200    -0.5020 hc         1 8KP       0.056367
     31 H8           1.7780    -2.7920    -1.8010 hc         1 8KP       0.056367
     32 H9           3.5350    -2.7220    -1.9560 hc         1 8KP       0.056367
     33 H10          0.7810    -0.7360    -1.3510 ha         1 8KP       0.156000
     34 H11          0.5050     2.6000     0.2560 hn         1 8KP       0.493000
     35 H12         -0.9170    -0.6410     0.5300 h1         1 8KP       0.097700
     36 H13         -1.3930     0.6900     1.6120 h1         1 8KP       0.097700
     37 H14         -3.7910     1.3310     1.8550 ha         1 8KP       0.119500
     38 H15         -6.1560     0.6010     1.7020 ha         1 8KP       0.116000
     39 H16         -7.6950    -1.0170    -0.5540 hc         1 8KP       0.045367
     40 H17         -7.2660    -2.5950     0.1290 hc         1 8KP       0.045367
     41 H18         -7.7440    -1.2710     1.1990 hc         1 8KP       0.045367
     42 H19         -4.9900    -2.6260    -0.9260 ha         1 8KP       0.116000
     43 H20         -2.6260    -1.8970    -0.7740 ha         1 8KP       0.119500
@<TRIPOS>BOND
     1     1     2 1   
     2     1    24 1   
     3     1    25 1   
     4     1    26 1   
     5     2     3 1   
     6     2    27 1   
     7     2    28 1   
     8     3     4 ar  
     9     3     5 ar  
    10     4    11 ar  
    11     4    29 1   
    12     5     6 1   
    13     5     8 ar  
    14     6     7 3   
    15     8     9 1   
    16     8    10 ar  
    17     9    30 1   
    18     9    31 1   
    19     9    32 1   
    20    10    11 ar  
    21    10    33 1   
    22    11    12 1   
    23    12    13 1   
    24    12    34 1   
    25    13    14 2   
    26    13    15 2   
    27    13    16 1   
    28    16    17 1   
    29    16    35 1   
    30    16    36 1   
    31    17    18 ar  
    32    17    23 ar  
    33    18    19 ar  
    34    18    37 1   
    35    19    20 ar  
    36    19    38 1   
    37    20    21 1   
    38    20    22 ar  
    39    21    39 1   
    40    21    40 1   
    41    21    41 1   
    42    22    23 ar  
    43    22    42 1   
    44    23    43 1   
@<TRIPOS>SUBSTRUCTURE
     1 8KP         1 TEMP              0 ****  ****    0 ROOT
