@<TRIPOS>MOLECULE
8KP
   43    44     1     0     0
SMALL
bcc


@<TRIPOS>ATOM
      1 CAT          5.6810     1.4500     1.3430 c3         1 8KP      -0.087100
      2 CAS          4.4490     0.7320     1.8940 c3         1 8KP      -0.040100
      3 CAO          3.4910     0.3440     0.8040 ca         1 8KP      -0.007300
      4 CAK          2.4040     1.1520     0.5160 ca         1 8KP      -0.183000
      5 CAN          3.6750    -0.8130     0.0350 ca         1 8KP      -0.037000
      6 CAQ          4.7740    -1.6760     0.3180 cg         1 8KP       0.238800
      7 NAR          5.6590    -2.3800     0.5430 n1         1 8KP      -0.367800
      8 CAM          2.8040    -1.1510    -1.0110 ca         1 8KP      -0.006300
      9 CAP          3.0260    -2.3830    -1.8320 c3         1 8KP      -0.059800
     10 CAL          1.7370    -0.3100    -1.2830 ca         1 8KP      -0.158000
     11 CAJ          1.5270     0.8350    -0.5170 ca         1 8KP       0.150600
     12 NAI          0.4630     1.7130    -0.7860 nu         1 8KP      -0.684500
     13 SAH         -1.1240     1.2030    -0.8900 s6         1 8KP       1.202900
     14 OAU         -1.9070     2.4200    -1.0070 o          1 8KP      -0.586300
     15 OAV         -1.2120     0.1960    -1.9310 o          1 8KP      -0.586300
     16 CAG         -1.4750     0.4160     0.6910 c3         1 8KP      -0.154300
     17 CAE         -2.8840    -0.0850     0.6920 ca         1 8KP      -0.094300
     18 CAD         -3.9190     0.7300     1.1400 ca         1 8KP      -0.099000
     19 CAC         -5.2280     0.2740     1.1250 ca         1 8KP      -0.128000
     20 CAB         -5.5400    -0.9990     0.6520 ca         1 8KP      -0.059300
     21 CAW         -6.9610    -1.4780     0.6030 c3         1 8KP      -0.050800
     22 CAA         -4.4970    -1.8070     0.2030 ca         1 8KP      -0.128000
     23 CAF         -3.1860    -1.3580     0.2190 ca         1 8KP      -0.099000
     24 H1           6.3430     1.7440     2.1570 hc         1 8KP       0.041033
     25 H2           6.2490     0.8110     0.6670 hc         1 8KP       0.041033
     26 H3           5.3980     2.3500     0.7970 hc         1 8KP       0.041033
     27 H4           4.7600    -0.1500     2.4570 hc         1 8KP       0.054200
     28 H5           3.9330     1.3840     2.6000 hc         1 8KP       0.054200
     29 H6           2.2360     2.0420     1.1120 ha         1 8KP       0.136000
     30 H7           3.0100    -3.2820    -1.2140 hc         1 8KP       0.056367
     31 H8           2.2560    -2.4880    -2.5930 hc         1 8KP       0.056367
     32 H9           3.9930    -2.3550    -2.3360 hc         1 8KP       0.056367
     33 H10          1.0820    -0.5470    -2.1080 ha         1 8KP       0.174000
     34 H11          0.5250     2.6020    -0.2980 hn         1 8KP       0.437800
     35 H12         -0.7440    -0.3840     0.8140 h1         1 8KP       0.097700
     36 H13         -1.3000     1.1730     1.4570 h1         1 8KP       0.097700
     37 H14         -3.7000     1.7220     1.5160 ha         1 8KP       0.137500
     38 H15         -6.0190     0.9190     1.4890 ha         1 8KP       0.134000
     39 H16         -7.4050    -1.2690    -0.3720 hc         1 8KP       0.045367
     40 H17         -7.0280    -2.5530     0.7650 hc         1 8KP       0.045367
     41 H18         -7.5770    -0.9830     1.3530 hc         1 8KP       0.045367
     42 H19         -4.7130    -2.8040    -0.1610 ha         1 8KP       0.134000
     43 H20         -2.3920    -2.0080    -0.1290 ha         1 8KP       0.137500
@<TRIPOS>BOND
     1     1     2 1   
     2     1    24 1   
     3     1    25 1   
     4     1    26 1   
     5     2     3 1   
     6     2    27 1   
     7     2    28 1   
     8     3     4 ar  
     9     3     5 ar  
    10     4    11 ar  
    11     4    29 1   
    12     5     6 1   
    13     5     8 ar  
    14     6     7 3   
    15     8     9 1   
    16     8    10 ar  
    17     9    30 1   
    18     9    31 1   
    19     9    32 1   
    20    10    11 ar  
    21    10    33 1   
    22    11    12 1   
    23    12    13 1   
    24    12    34 1   
    25    13    14 2   
    26    13    15 2   
    27    13    16 1   
    28    16    17 1   
    29    16    35 1   
    30    16    36 1   
    31    17    18 ar  
    32    17    23 ar  
    33    18    19 ar  
    34    18    37 1   
    35    19    20 ar  
    36    19    38 1   
    37    20    21 1   
    38    20    22 ar  
    39    21    39 1   
    40    21    40 1   
    41    21    41 1   
    42    22    23 ar  
    43    22    42 1   
    44    23    43 1   
@<TRIPOS>SUBSTRUCTURE
     1 8KP         1 TEMP              0 ****  ****    0 ROOT
