@<TRIPOS>MOLECULE
8KQ
   43    46     1     0     0
SMALL
No Charge or Current Charge


@<TRIPOS>ATOM
      1 C10         -5.1930     3.8010   -19.0780 cc         1 8KQ      -0.120400
      2 C13         -4.7800     6.1920   -16.1600 ca         1 8KQ      -0.152000
      3 C15         -4.1610     7.1690   -18.3220 ca         1 8KQ      -0.137000
      4 C20         -5.0760     1.9230   -21.2610 c6         1 8KQ      -0.085400
      5 C21         -7.5880    -1.5580   -20.8820 ca         1 8KQ      -0.244600
      6 C22         -6.3970    -2.1380   -21.6060 c          1 8KQ       0.726600
      7 C03         -9.9930    -1.6720   -20.3750 ca         1 8KQ      -0.312300
      8 C04         -9.8750    -0.5150   -19.5830 ca         1 8KQ      -0.022000
      9 C05         -8.6290     0.1080   -19.4390 ca         1 8KQ      -0.261000
     10 C06         -7.4920    -0.4020   -20.0820 ca         1 8KQ       0.404000
     11 C08         -6.1090     1.6910   -20.1290 c6         1 8KQ       0.253500
     12 C09         -5.6650     2.3890   -18.8120 c6         1 8KQ      -0.029200
     13 C11         -4.9470     4.8900   -18.1800 ca         1 8KQ      -0.085800
     14 C12         -5.1050     4.9710   -16.7900 ca         1 8KQ      -0.054000
     15 C14         -4.3100     7.2870   -16.9240 ca         1 8KQ      -0.100000
     16 C16         -4.4920     5.9450   -18.9210 ca         1 8KQ      -0.046200
     17 C18         -4.8530     4.2660   -20.3450 cd         1 8KQ      -0.068300
     18 C19         -4.9500     3.4300   -21.6030 c6         1 8KQ      -0.015200
     19 C25         -8.8490    -2.1800   -21.0250 ca         1 8KQ       0.013000
     20 F01        -11.2260    -3.7120   -20.6020 f          1 8KQ      -0.134000
     21 F26        -11.9430    -1.9830   -21.7060 f          1 8KQ      -0.134000
     22 F27        -12.2120    -2.0920   -19.5520 f          1 8KQ      -0.134000
     23 N07         -6.2800     0.2490   -19.9070 nu         1 8KQ      -0.991200
     24 N17         -4.4220     5.6090   -20.2620 na         1 8KQ      -0.226700
     25 O23         -5.2700    -1.9000   -21.1900 o          1 8KQ      -0.718500
     26 O24         -6.6050    -2.8420   -22.5820 o          1 8KQ      -0.718500
     27 H131        -4.8910     6.2900   -15.0830 ha         1 8KQ       0.104000
     28 H151        -3.8000     8.0040   -18.9170 ha         1 8KQ       0.104000
     29 H201        -5.3660     1.3670   -22.1630 hc         1 8KQ       0.059700
     30 H202        -4.0950     1.5340   -20.9520 hc         1 8KQ       0.059700
     31 H041       -10.7420    -0.0930   -19.0780 ha         1 8KQ       0.093000
     32 H051        -8.5510     0.9950   -18.8170 ha         1 8KQ       0.095000
     33 H081        -7.0620     2.1400   -20.4520 h1         1 8KQ       0.044700
     34 H091        -6.4960     2.3850   -18.0950 hc         1 8KQ       0.059700
     35 H092        -4.8530     1.8160   -18.3460 hc         1 8KQ       0.059700
     36 H121        -5.4670     4.1220   -16.2150 ha         1 8KQ       0.118000
     37 H141        -4.0610     8.2240   -16.4300 ha         1 8KQ       0.100000
     38 H192        -4.0760     3.5920   -22.2480 hc         1 8KQ       0.043700
     39 H191        -5.8270     3.7450   -22.1850 hc         1 8KQ       0.043700
     40 H251        -8.9410    -3.0710   -21.6460 ha         1 8KQ       0.143000
     41 H071        -5.5310    -0.3480   -20.2880 hn         1 8KQ       0.562000
     42 H171        -4.1170     6.2020   -21.0270 hn         1 8KQ       0.341000
     43 C02        -11.3470    -2.3660   -20.5560 c3         1 8KQ       0.363300
@<TRIPOS>BOND
     1     1    12 1   
     2     1    13 1   
     3     1    17 2   
     4     2    14 ar  
     5     2    15 ar  
     6     2    27 1   
     7     3    15 ar  
     8     3    16 ar  
     9     3    28 1   
    10     4    11 1   
    11     4    18 1   
    12     4    29 1   
    13     4    30 1   
    14     5     6 1   
    15     5    10 ar  
    16     5    19 ar  
    17     6    25 1   
    18     6    26 1   
    19     7     8 ar  
    20     7    19 ar  
    21     7    43 1   
    22     8     9 ar  
    23     8    31 1   
    24     9    10 ar  
    25     9    32 1   
    26    10    23 1   
    27    11    12 1   
    28    11    23 1   
    29    11    33 1   
    30    12    34 1   
    31    12    35 1   
    32    13    14 ar  
    33    13    16 ar  
    34    14    36 1   
    35    15    37 1   
    36    16    24 1   
    37    17    18 1   
    38    17    24 1   
    39    18    38 1   
    40    18    39 1   
    41    19    40 1   
    42    20    43 1   
    43    21    43 1   
    44    22    43 1   
    45    23    41 1   
    46    24    42 1   
@<TRIPOS>SUBSTRUCTURE
     1 8KQ         1 TEMP              0 ****  ****    0 ROOT
