@<TRIPOS>MOLECULE
8KQ
   43    46     1     0     0
SMALL
bcc


@<TRIPOS>ATOM
      1 C10         -5.1960     3.6960   -19.2220 cc         1 8KQ      -0.120400
      2 C13         -5.0520     5.7710   -16.0450 ca         1 8KQ      -0.170000
      3 C15         -4.3080     6.9890   -18.0100 ca         1 8KQ      -0.155000
      4 C20         -4.9290     2.1870   -21.5960 c6         1 8KQ      -0.085400
      5 C21         -7.5530    -1.6400   -20.6680 ca         1 8KQ      -0.244600
      6 C22         -6.3650    -2.5170   -21.0370 c          1 8KQ       0.937200
      7 C03         -9.9370    -1.5370   -20.1850 ca         1 8KQ      -0.312300
      8 C04         -9.8270    -0.1630   -19.9650 ca         1 8KQ      -0.040000
      9 C05         -8.6160     0.4740   -20.1010 ca         1 8KQ      -0.279000
     10 C06         -7.4510    -0.2310   -20.4810 ca         1 8KQ       0.265600
     11 C08         -6.0380     1.8160   -20.6090 c6         1 8KQ       0.253500
     12 C09         -5.6790     2.2830   -19.1900 c6         1 8KQ      -0.029200
     13 C11         -5.0600     4.6540   -18.1670 ca         1 8KQ      -0.085800
     14 C12         -5.3040     4.6330   -16.7900 ca         1 8KQ      -0.072000
     15 C14         -4.5590     6.9370   -16.6500 ca         1 8KQ      -0.118000
     16 C16         -4.5620     5.8410   -18.7560 ca         1 8KQ      -0.046200
     17 C18         -4.7870     4.3150   -20.3690 cd         1 8KQ      -0.068300
     18 C19         -4.7660     3.7010   -21.7230 c6         1 8KQ      -0.015200
     19 C25         -8.7920    -2.2460   -20.5210 ca         1 8KQ      -0.005000
     20 F01        -11.2200    -3.5140   -20.2240 f          1 8KQ      -0.255300
     21 F26        -12.1420    -1.7280   -20.9940 f          1 8KQ      -0.255300
     22 F27        -11.8560    -1.9520   -18.8840 f          1 8KQ      -0.255300
     23 N07         -6.2750     0.3970   -20.6730 nu         1 8KQ      -0.797600
     24 N17         -4.4080     5.6010   -20.0920 na         1 8KQ      -0.176400
     25 O23         -5.2550    -1.9480   -21.1970 o          1 8KQ      -0.823800
     26 O24         -6.5710    -3.7360   -21.1550 o          1 8KQ      -0.823800
     27 H131        -5.2370     5.7660   -14.9790 ha         1 8KQ       0.122000
     28 H151        -3.9280     7.8900   -18.4760 ha         1 8KQ       0.122000
     29 H201        -5.1580     1.7620   -22.5750 hc         1 8KQ       0.059700
     30 H202        -3.9880     1.7380   -21.2650 hc         1 8KQ       0.059700
     31 H041       -10.6920     0.4250   -19.6810 ha         1 8KQ       0.111000
     32 H051        -8.5690     1.5370   -19.9090 ha         1 8KQ       0.113000
     33 H081        -6.9440     2.3470   -20.9250 h1         1 8KQ       0.044700
     34 H091        -6.5500     2.1820   -18.5360 hc         1 8KQ       0.059700
     35 H092        -4.9130     1.6140   -18.7850 hc         1 8KQ       0.059700
     36 H121        -5.6840     3.7370   -16.3120 ha         1 8KQ       0.136000
     37 H141        -4.3720     7.8130   -16.0430 ha         1 8KQ       0.118000
     38 H192        -3.8350     3.9380   -22.2450 hc         1 8KQ       0.043700
     39 H191        -5.5740     4.1150   -22.3360 hc         1 8KQ       0.043700
     40 H251        -8.8380    -3.3140   -20.6860 ha         1 8KQ       0.161000
     41 H071        -5.5200    -0.2460   -20.9190 hn         1 8KQ       0.506800
     42 H171        -4.0640     6.2640   -20.7680 hn         1 8KQ       0.290700
     43 C02        -11.2680    -2.1840   -20.0730 c3         1 8KQ       0.727200
@<TRIPOS>BOND
     1     1    12 1   
     2     1    13 1   
     3     1    17 2   
     4     2    14 ar  
     5     2    15 ar  
     6     2    27 1   
     7     3    15 ar  
     8     3    16 ar  
     9     3    28 1   
    10     4    11 1   
    11     4    18 1   
    12     4    29 1   
    13     4    30 1   
    14     5     6 1   
    15     5    10 ar  
    16     5    19 ar  
    17     6    25 1   
    18     6    26 1   
    19     7     8 ar  
    20     7    19 ar  
    21     7    43 1   
    22     8     9 ar  
    23     8    31 1   
    24     9    10 ar  
    25     9    32 1   
    26    10    23 1   
    27    11    12 1   
    28    11    23 1   
    29    11    33 1   
    30    12    34 1   
    31    12    35 1   
    32    13    14 ar  
    33    13    16 ar  
    34    14    36 1   
    35    15    37 1   
    36    16    24 1   
    37    17    18 1   
    38    17    24 1   
    39    18    38 1   
    40    18    39 1   
    41    19    40 1   
    42    20    43 1   
    43    21    43 1   
    44    22    43 1   
    45    23    41 1   
    46    24    42 1   
@<TRIPOS>SUBSTRUCTURE
     1 8KQ         1 TEMP              0 ****  ****    0 ROOT
