@<TRIPOS>MOLECULE
8KR
   41    41     1     0     0
SMALL
abcg2


@<TRIPOS>ATOM
      1 O1           0.6650     0.6600     1.6010 o          1 8KR      -0.632100
      2 C1           0.5240     0.5680     0.3900 c          1 8KR       0.662100
      3 N            1.5800     0.4760    -0.4840 ns         1 8KR      -0.170000
      4 CA           2.9260     0.3760    -0.1050 ca         1 8KR      -0.016000
      5 C            3.4700     1.2220     0.8600 ca         1 8KR      -0.106000
      6 C4           4.8080     1.1180     1.2060 ca         1 8KR      -0.095000
      7 CD1          5.6210     0.1860     0.5780 ca         1 8KR      -0.125000
      8 CG1          5.0800    -0.6410    -0.3960 ca         1 8KR      -0.092000
      9 CB           3.7360    -0.5720    -0.7480 ca         1 8KR      -0.118300
     10 CG2          3.1680    -1.4940    -1.7870 c3         1 8KR      -0.046800
     11 N2          -0.6870     0.5460    -0.2130 ns         1 8KR      -0.522900
     12 C9          -1.9090     0.6400     0.5390 c3         1 8KR       0.054700
     13 C10         -2.2950    -0.6880     1.2170 c3         1 8KR      -0.086400
     14 C11         -2.3410    -1.9340     0.3320 c3         1 8KR      -0.057700
     15 C12         -2.5320    -3.1630     1.2180 c3         1 8KR      -0.092100
     16 C13         -3.4250    -1.8910    -0.7420 c3         1 8KR      -0.092100
     17 C14         -2.9810     1.2220    -0.3830 c          1 8KR       0.593100
     18 O2          -2.7780     1.4940    -1.5520 o          1 8KR      -0.577100
     19 N3          -4.1670     1.4000     0.2250 ns         1 8KR      -0.379400
     20 O3          -5.1530     2.0830    -0.4190 oh         1 8KR      -0.423100
     21 H1           1.3670     0.2400    -1.4410 hn         1 8KR       0.149000
     22 H2           2.8510     1.9710     1.3310 ha         1 8KR       0.134000
     23 H3           5.2160     1.7790     1.9610 ha         1 8KR       0.115000
     24 H4           6.6670     0.1040     0.8410 ha         1 8KR       0.114000
     25 H5           5.7130    -1.3700    -0.8890 ha         1 8KR       0.110000
     26 H6           2.8210    -0.9540    -2.6720 hc         1 8KR       0.040367
     27 H7           3.9170    -2.2090    -2.1240 hc         1 8KR       0.040367
     28 H8           2.3160    -2.0580    -1.4030 hc         1 8KR       0.040367
     29 H9          -0.7620     0.5620    -1.2190 hn         1 8KR       0.337500
     30 H10         -1.7730     1.3740     1.3410 h1         1 8KR       0.080700
     31 H11         -1.5520    -0.8510     2.0000 hc         1 8KR       0.055700
     32 H12         -3.2500    -0.5710     1.7380 hc         1 8KR       0.055700
     33 H13         -1.3710    -2.0290    -0.1670 hc         1 8KR       0.052700
     34 H14         -3.4910    -3.1240     1.7410 hc         1 8KR       0.034867
     35 H15         -2.5190    -4.0800     0.6260 hc         1 8KR       0.034867
     36 H16         -1.7460    -3.2430     1.9710 hc         1 8KR       0.034867
     37 H17         -3.2360    -1.1330    -1.5010 hc         1 8KR       0.034867
     38 H18         -3.4810    -2.8490    -1.2620 hc         1 8KR       0.034867
     39 H19         -4.4070    -1.6950    -0.3060 hc         1 8KR       0.034867
     40 H20         -4.2690     1.3650     1.2300 hn         1 8KR       0.338500
     41 H21         -5.7620     1.4140    -0.7580 ho         1 8KR       0.448000
@<TRIPOS>BOND
     1     1     2 2   
     2     2     3 1   
     3     2    11 1   
     4     3     4 1   
     5     3    21 1   
     6     4     5 ar  
     7     4     9 ar  
     8     5     6 ar  
     9     5    22 1   
    10     6     7 ar  
    11     6    23 1   
    12     7     8 ar  
    13     7    24 1   
    14     8     9 ar  
    15     8    25 1   
    16     9    10 1   
    17    10    26 1   
    18    10    27 1   
    19    10    28 1   
    20    11    12 1   
    21    11    29 1   
    22    12    13 1   
    23    12    17 1   
    24    12    30 1   
    25    13    14 1   
    26    13    31 1   
    27    13    32 1   
    28    14    15 1   
    29    14    16 1   
    30    14    33 1   
    31    15    34 1   
    32    15    35 1   
    33    15    36 1   
    34    16    37 1   
    35    16    38 1   
    36    16    39 1   
    37    17    18 2   
    38    17    19 1   
    39    19    20 1   
    40    19    40 1   
    41    20    41 1   
@<TRIPOS>SUBSTRUCTURE
     1 8KR         1 TEMP              0 ****  ****    0 ROOT
