@<TRIPOS>MOLECULE
8KR
   41    41     1     0     0
SMALL
No Charge or Current Charge


@<TRIPOS>ATOM
      1 O1           0.5250     0.7580     1.7370 o          1 8KR      -0.632100
      2 C1           0.4900     0.5020     0.5420 c          1 8KR       0.662100
      3 N            1.5880     0.2130    -0.2510 ns         1 8KR      -0.170000
      4 CA           2.9840     0.1400     0.0260 ca         1 8KR      -0.016000
      5 C            3.5330     0.5060     1.2770 ca         1 8KR      -0.106000
      6 C4           4.9170     0.4210     1.5030 ca         1 8KR      -0.095000
      7 CD1          5.7700    -0.0280     0.4850 ca         1 8KR      -0.125000
      8 CG1          5.2390    -0.3900    -0.7620 ca         1 8KR      -0.092000
      9 CB           3.8520    -0.3080    -1.0010 ca         1 8KR      -0.118300
     10 CG2          3.3090    -0.7120    -2.3700 c3         1 8KR      -0.046800
     11 N2          -0.6870     0.4720    -0.1670 ns         1 8KR      -0.522900
     12 C9          -2.0360     0.7010     0.4040 c3         1 8KR       0.054700
     13 C10         -2.4990    -0.4840     1.3100 c3         1 8KR      -0.086400
     14 C11         -2.3580    -1.9240     0.7300 c3         1 8KR      -0.057700
     15 C12         -2.7150    -2.9790     1.8020 c3         1 8KR      -0.092100
     16 C13         -3.1880    -2.1580    -0.5540 c3         1 8KR      -0.092100
     17 C14         -3.0540     1.0920    -0.7150 c          1 8KR       0.593100
     18 O2          -2.7500     1.1320    -1.9040 o          1 8KR      -0.577100
     19 N3          -4.3420     1.3940    -0.2770 ns         1 8KR      -0.379400
     20 O3          -5.3050     2.0190    -1.1630 oh         1 8KR      -0.423100
     21 H1           1.3600     0.0120    -1.2150 hn         1 8KR       0.149000
     22 H2           2.9070     0.8650     2.0870 ha         1 8KR       0.134000
     23 H3           5.3280     0.7060     2.4700 ha         1 8KR       0.115000
     24 H4           6.8410    -0.0930     0.6610 ha         1 8KR       0.114000
     25 H5           5.9100    -0.7350    -1.5450 ha         1 8KR       0.110000
     26 H6           2.8050     0.1310    -2.8590 hc         1 8KR       0.040367
     27 H7           4.1080    -1.0480    -3.0430 hc         1 8KR       0.040367
     28 H8           2.5890    -1.5340    -2.2840 hc         1 8KR       0.040367
     29 H9          -0.6210     0.2840    -1.1610 hn         1 8KR       0.337500
     30 H10         -1.9750     1.5900     1.0460 h1         1 8KR       0.080700
     31 H11         -1.9050    -0.4390     2.2320 hc         1 8KR       0.055700
     32 H12         -3.5360    -0.3240     1.6300 hc         1 8KR       0.055700
     33 H13         -1.3040    -2.0860     0.4710 hc         1 8KR       0.052700
     34 H14         -3.7650    -2.8880     2.1070 hc         1 8KR       0.034867
     35 H15         -2.5560    -3.9940     1.4190 hc         1 8KR       0.034867
     36 H16         -2.0870    -2.8550     2.6930 hc         1 8KR       0.034867
     37 H17         -2.8020    -1.5620    -1.3880 hc         1 8KR       0.034867
     38 H18         -3.1390    -3.2100    -0.8600 hc         1 8KR       0.034867
     39 H19         -4.2420    -1.8980    -0.3940 hc         1 8KR       0.034867
     40 H20         -4.5190     1.4980     0.7210 hn         1 8KR       0.338500
     41 H21         -6.1120     1.4600    -1.0620 ho         1 8KR       0.448000
@<TRIPOS>BOND
     1     1     2 2   
     2     2     3 1   
     3     2    11 1   
     4     3     4 1   
     5     3    21 1   
     6     4     5 ar  
     7     4     9 ar  
     8     5     6 ar  
     9     5    22 1   
    10     6     7 ar  
    11     6    23 1   
    12     7     8 ar  
    13     7    24 1   
    14     8     9 ar  
    15     8    25 1   
    16     9    10 1   
    17    10    26 1   
    18    10    27 1   
    19    10    28 1   
    20    11    12 1   
    21    11    29 1   
    22    12    13 1   
    23    12    17 1   
    24    12    30 1   
    25    13    14 1   
    26    13    31 1   
    27    13    32 1   
    28    14    15 1   
    29    14    16 1   
    30    14    33 1   
    31    15    34 1   
    32    15    35 1   
    33    15    36 1   
    34    16    37 1   
    35    16    38 1   
    36    16    39 1   
    37    17    18 2   
    38    17    19 1   
    39    19    20 1   
    40    19    40 1   
    41    20    41 1   
@<TRIPOS>SUBSTRUCTURE
     1 8KR         1 TEMP              0 ****  ****    0 ROOT
