@<TRIPOS>MOLECULE
8KS
   53    57     1     0     0
SMALL
abcg2


@<TRIPOS>ATOM
      1 C12          1.1040    -0.6400     0.9150 cy         1 8KS      -0.142700
      2 C11          0.7250    -2.5250    -1.8570 ca         1 8KS      -0.096000
      3 C10         -0.1410    -3.2880    -2.6300 ca         1 8KS      -0.120750
      4 O15         -0.9220    -0.0940    -0.1660 os         1 8KS      -0.356200
      5 C16         -2.2910    -0.1310    -0.3240 ca         1 8KS       0.132100
      6 O01          4.0080    -0.9210     1.8180 o          1 8KS      -0.723000
      7 C02          4.1400    -0.9430     0.5780 c          1 8KS       0.722000
      8 O03          5.2070    -0.8270    -0.0570 o          1 8KS      -0.723000
      9 C04          2.8630    -1.0960    -0.2600 cy         1 8KS      -0.185700
     10 C05          1.7690    -1.9640     0.4030 cy         1 8KS      -0.007400
     11 C06          0.8850    -2.7820    -0.4960 ca         1 8KS      -0.041800
     12 C07          0.1500    -3.8270     0.0660 ca         1 8KS      -0.096000
     13 C08         -0.7180    -4.5900    -0.7020 ca         1 8KS      -0.120750
     14 C09         -0.8680    -4.3220    -2.0570 ca         1 8KS      -0.131500
     15 C13         -0.3870    -0.6270     0.9490 c          1 8KS       0.611100
     16 O14         -1.0550    -1.0710     1.8420 o          1 8KS      -0.480000
     17 C17         -2.8930    -1.2720    -0.7660 ca         1 8KS      -0.119000
     18 C18         -4.2860    -1.2860    -0.9740 ca         1 8KS      -0.093000
     19 C19         -5.0350    -0.1680    -0.7330 ca         1 8KS      -0.119000
     20 C20         -4.4240     1.0240    -0.2800 ca         1 8KS      -0.029000
     21 C21         -5.1770     2.1950    -0.0280 ca         1 8KS      -0.111000
     22 C22         -4.5670     3.3400     0.4070 ca         1 8KS      -0.107000
     23 C23         -3.1720     3.3670     0.6080 ca         1 8KS      -0.122000
     24 C24         -2.4130     2.2530     0.3760 ca         1 8KS      -0.071000
     25 C25         -3.0200     1.0540    -0.0670 ca         1 8KS      -0.039000
     26 C26          1.9060     0.1270    -0.1400 cy         1 8KS      -0.007400
     27 C27          2.4390     1.4850     0.1940 ca         1 8KS      -0.041800
     28 C28          3.4760     2.0340    -0.5600 ca         1 8KS      -0.096000
     29 C29          3.9520     3.3090    -0.2920 ca         1 8KS      -0.120750
     30 C30          3.3960     4.0620     0.7360 ca         1 8KS      -0.131500
     31 C31          2.3610     3.5270     1.4900 ca         1 8KS      -0.120750
     32 C32          1.8900     2.2480     1.2200 ca         1 8KS      -0.096000
     33 H1           1.4750    -0.4430     1.9200 hc         1 8KS       0.127700
     34 H2           1.2780    -1.7250    -2.3320 ha         1 8KS       0.117500
     35 H3          -0.2480    -3.0700    -3.6850 ha         1 8KS       0.098250
     36 H5           3.1190    -1.3680    -1.2840 hc         1 8KS       0.056700
     37 H6           2.1250    -2.5860     1.2240 hc         1 8KS       0.072200
     38 H7           0.2630    -4.0480     1.1210 ha         1 8KS       0.117500
     39 H8          -1.2750    -5.3960    -0.2420 ha         1 8KS       0.098250
     40 H9          -1.5430    -4.9150    -2.6610 ha         1 8KS       0.094500
     41 H10         -2.3000    -2.1580    -0.9650 ha         1 8KS       0.141000
     42 H11         -4.7560    -2.1940    -1.3260 ha         1 8KS       0.108000
     43 H12         -6.1070    -0.1810    -0.8920 ha         1 8KS       0.105000
     44 H13         -6.2480     2.1710    -0.1850 ha         1 8KS       0.104000
     45 H14         -5.1540     4.2290     0.5970 ha         1 8KS       0.103000
     46 H15         -2.6990     4.2790     0.9470 ha         1 8KS       0.111000
     47 H16         -1.3420     2.2970     0.5270 ha         1 8KS       0.135000
     48 H17          1.3330     0.1950    -1.0680 hc         1 8KS       0.072200
     49 H18          3.9160     1.4550    -1.3630 ha         1 8KS       0.117500
     50 H19          4.7600     3.7180    -0.8850 ha         1 8KS       0.098250
     51 H20          3.7670     5.0570     0.9460 ha         1 8KS       0.094500
     52 H21          1.9190     4.1040     2.2930 ha         1 8KS       0.098250
     53 H22          1.0860     1.8460     1.8250 ha         1 8KS       0.117500
@<TRIPOS>BOND
     1     1    10 1   
     2     1    15 1   
     3     1    26 1   
     4     1    33 1   
     5     2     3 ar  
     6     2    11 ar  
     7     2    34 1   
     8     3    14 ar  
     9     3    35 1   
    10     4     5 1   
    11     4    15 1   
    12     5    17 ar  
    13     5    25 ar  
    14     6     7 1   
    15     7     8 1   
    16     7     9 1   
    17     9    10 1   
    18     9    26 1   
    19     9    36 1   
    20    10    11 1   
    21    10    37 1   
    22    11    12 ar  
    23    12    13 ar  
    24    12    38 1   
    25    13    14 ar  
    26    13    39 1   
    27    14    40 1   
    28    15    16 2   
    29    17    18 ar  
    30    17    41 1   
    31    18    19 ar  
    32    18    42 1   
    33    19    20 ar  
    34    19    43 1   
    35    20    21 ar  
    36    20    25 ar  
    37    21    22 ar  
    38    21    44 1   
    39    22    23 ar  
    40    22    45 1   
    41    23    24 ar  
    42    23    46 1   
    43    24    25 ar  
    44    24    47 1   
    45    26    27 1   
    46    26    48 1   
    47    27    28 ar  
    48    27    32 ar  
    49    28    29 ar  
    50    28    49 1   
    51    29    30 ar  
    52    29    50 1   
    53    30    31 ar  
    54    30    51 1   
    55    31    32 ar  
    56    31    52 1   
    57    32    53 1   
@<TRIPOS>SUBSTRUCTURE
     1 8KS         1 TEMP              0 ****  ****    0 ROOT
