@<TRIPOS>MOLECULE
8KS
   53    57     1     0     0
SMALL
No Charge or Current Charge


@<TRIPOS>ATOM
      1 C12          1.0920    -0.8170     1.1010 cy         1 8KS      -0.142700
      2 C11          0.6590    -3.0830    -1.5880 ca         1 8KS      -0.096000
      3 C10         -0.0320    -4.0970    -2.2750 ca         1 8KS      -0.120750
      4 O15         -0.9400     0.2410     0.3320 os         1 8KS      -0.356200
      5 C16         -2.1720     0.4550    -0.2480 ca         1 8KS       0.132100
      6 O01          3.7990    -0.8180     1.9330 o          1 8KS      -0.723000
      7 C02          3.8430    -0.7590     0.7080 c          1 8KS       0.722000
      8 O03          4.9090    -0.3750     0.2500 o          1 8KS      -0.723000
      9 C04          2.7050    -1.2430    -0.3340 cy         1 8KS      -0.185700
     10 C05          1.7810    -2.1730     0.5690 cy         1 8KS      -0.007400
     11 C06          1.0180    -3.2520    -0.2300 ca         1 8KS      -0.041800
     12 C07          0.6760    -4.4600     0.4160 ca         1 8KS      -0.096000
     13 C08         -0.0140    -5.4720    -0.2730 ca         1 8KS      -0.120750
     14 C09         -0.3690    -5.2910    -1.6190 ca         1 8KS      -0.131500
     15 C13         -0.4390    -0.9920     0.6840 c          1 8KS       0.611100
     16 O14         -1.2070    -1.9440     0.7640 o          1 8KS      -0.480000
     17 C17         -2.5880    -0.3370    -1.3370 ca         1 8KS      -0.119000
     18 C18         -3.8310    -0.1020    -1.9470 ca         1 8KS      -0.093000
     19 C19         -4.6590     0.9320    -1.4800 ca         1 8KS      -0.119000
     20 C20         -4.2440     1.7410    -0.4060 ca         1 8KS      -0.029000
     21 C21         -5.0740     2.7830     0.0480 ca         1 8KS      -0.111000
     22 C22         -4.6640     3.5980     1.1160 ca         1 8KS      -0.107000
     23 C23         -3.4230     3.3750     1.7330 ca         1 8KS      -0.122000
     24 C24         -2.5890     2.3350     1.2860 ca         1 8KS      -0.071000
     25 C25         -2.9930     1.5090     0.2140 ca         1 8KS      -0.039000
     26 C26          1.6540    -0.0630    -0.1910 cy         1 8KS      -0.007400
     27 C27          2.1470     1.3840    -0.0550 ca         1 8KS      -0.041800
     28 C28          3.0170     1.9120    -1.0290 ca         1 8KS      -0.096000
     29 C29          3.4570     3.2440    -0.9470 ca         1 8KS      -0.120750
     30 C30          3.0210     4.0650     0.1050 ca         1 8KS      -0.131500
     31 C31          2.1400     3.5530     1.0720 ca         1 8KS      -0.120750
     32 C32          1.7000     2.2210     0.9910 ca         1 8KS      -0.096000
     33 H1           1.2840    -0.4510     2.1130 hc         1 8KS       0.127700
     34 H2           0.9060    -2.1710    -2.1230 ha         1 8KS       0.117500
     35 H3          -0.3060    -3.9550    -3.3180 ha         1 8KS       0.098250
     36 H5           3.0690    -1.5670    -1.3130 hc         1 8KS       0.056700
     37 H6           2.3310    -2.6870     1.3660 hc         1 8KS       0.072200
     38 H7           0.9410    -4.6130     1.4600 ha         1 8KS       0.117500
     39 H8          -0.2740    -6.3960     0.2380 ha         1 8KS       0.098250
     40 H9          -0.9040    -6.0730    -2.1520 ha         1 8KS       0.094500
     41 H10         -1.9490    -1.1310    -1.7130 ha         1 8KS       0.141000
     42 H11         -4.1510    -0.7190    -2.7840 ha         1 8KS       0.108000
     43 H12         -5.6190     1.1070    -1.9600 ha         1 8KS       0.105000
     44 H13         -6.0360     2.9640    -0.4260 ha         1 8KS       0.104000
     45 H14         -5.3070     4.4030     1.4640 ha         1 8KS       0.103000
     46 H15         -3.1050     4.0070     2.5600 ha         1 8KS       0.111000
     47 H16         -1.6320     2.1770     1.7780 ha         1 8KS       0.135000
     48 H17          0.9950    -0.1070    -1.0670 hc         1 8KS       0.072200
     49 H18          3.3560     1.2860    -1.8510 ha         1 8KS       0.117500
     50 H19          4.1340     3.6400    -1.7010 ha         1 8KS       0.098250
     51 H20          3.3590     5.0970     0.1680 ha         1 8KS       0.094500
     52 H21          1.7930     4.1910     1.8820 ha         1 8KS       0.098250
     53 H22          1.0070     1.8500     1.7400 ha         1 8KS       0.117500
@<TRIPOS>BOND
     1     1    10 1   
     2     1    15 1   
     3     1    26 1   
     4     1    33 1   
     5     2     3 ar  
     6     2    11 ar  
     7     2    34 1   
     8     3    14 ar  
     9     3    35 1   
    10     4     5 1   
    11     4    15 1   
    12     5    17 ar  
    13     5    25 ar  
    14     6     7 1   
    15     7     8 1   
    16     7     9 1   
    17     9    10 1   
    18     9    26 1   
    19     9    36 1   
    20    10    11 1   
    21    10    37 1   
    22    11    12 ar  
    23    12    13 ar  
    24    12    38 1   
    25    13    14 ar  
    26    13    39 1   
    27    14    40 1   
    28    15    16 2   
    29    17    18 ar  
    30    17    41 1   
    31    18    19 ar  
    32    18    42 1   
    33    19    20 ar  
    34    19    43 1   
    35    20    21 ar  
    36    20    25 ar  
    37    21    22 ar  
    38    21    44 1   
    39    22    23 ar  
    40    22    45 1   
    41    23    24 ar  
    42    23    46 1   
    43    24    25 ar  
    44    24    47 1   
    45    26    27 1   
    46    26    48 1   
    47    27    28 ar  
    48    27    32 ar  
    49    28    29 ar  
    50    28    49 1   
    51    29    30 ar  
    52    29    50 1   
    53    30    31 ar  
    54    30    51 1   
    55    31    32 ar  
    56    31    52 1   
    57    32    53 1   
@<TRIPOS>SUBSTRUCTURE
     1 8KS         1 TEMP              0 ****  ****    0 ROOT
