@<TRIPOS>MOLECULE
8KT
   20    21     1     0     0
SMALL
No Charge or Current Charge


@<TRIPOS>ATOM
      1 C33          8.8670   -14.3070    52.3310 c          1 8KT       0.713600
      2 O34          8.7750   -14.5350    53.5290 o          1 8KT      -0.712500
      3 C35          9.2910   -15.4360    51.4040 ca         1 8KT      -0.111600
      4 C36          9.5750   -16.7250    51.9140 ca         1 8KT      -0.087000
      5 C37          9.9670   -17.7670    51.0560 ca         1 8KT      -0.117000
      6 C38         10.0840   -17.5470    49.6720 ca         1 8KT      -0.113300
      7 C39          9.8050   -16.2690    49.1550 ca         1 8KT      -0.117000
      8 C40          9.4120   -15.2240    50.0100 ca         1 8KT      -0.087000
      9 C41         10.5090   -18.6640    48.7540 cx         1 8KT       0.095700
     10 C42         12.0230   -18.8120    48.5080 c3         1 8KT       0.342000
     11 F43         12.3140   -19.8390    47.6730 f          1 8KT      -0.107000
     12 F44         12.6800   -19.0350    49.6700 f          1 8KT      -0.107000
     13 F45         12.5340   -17.6850    47.9580 f          1 8KT      -0.107000
     14 N46          9.5900   -19.0900    47.6990 n2         1 8KT      -0.113700
     15 N47          9.6740   -19.8630    48.6790 n2         1 8KT      -0.113700
     16 H30          9.4930   -16.9240    52.9800 ha         1 8KT       0.133000
     17 H31         10.1820   -18.7500    51.4700 ha         1 8KT       0.095000
     18 H32          9.8920   -16.0820    48.0870 ha         1 8KT       0.095000
     19 H33          9.2030   -14.2450    49.5840 ha         1 8KT       0.133000
     20 OXT          8.6320   -13.2080    51.8470 o          1 8KT      -0.712500
@<TRIPOS>BOND
     1     1     2 1   
     2     1     3 1   
     3     1    20 1   
     4     3     4 ar  
     5     3     8 ar  
     6     4     5 ar  
     7     4    16 1   
     8     5     6 ar  
     9     5    17 1   
    10     6     7 ar  
    11     6     9 1   
    12     7     8 ar  
    13     7    18 1   
    14     8    19 1   
    15     9    10 1   
    16     9    14 1   
    17     9    15 1   
    18    10    11 1   
    19    10    12 1   
    20    10    13 1   
    21    14    15 2   
@<TRIPOS>SUBSTRUCTURE
     1 8KT         1 TEMP              0 ****  ****    0 ROOT
