@<TRIPOS>MOLECULE
8KT
   20    21     1     0     0
SMALL
abcg2


@<TRIPOS>ATOM
      1 C33          8.7280   -14.3730    52.3450 c          1 8KT       0.713600
      2 O34          9.1850   -14.4140    53.5030 o          1 8KT      -0.712500
      3 C35          9.2590   -15.4230    51.3710 ca         1 8KT      -0.111600
      4 C36         10.2040   -16.3630    51.7720 ca         1 8KT      -0.087000
      5 C37         10.6910   -17.3200    50.8960 ca         1 8KT      -0.117000
      6 C38         10.2420   -17.3650    49.5750 ca         1 8KT      -0.113300
      7 C39          9.2940   -16.4220    49.1680 ca         1 8KT      -0.117000
      8 C40          8.8150   -15.4720    50.0550 ca         1 8KT      -0.087000
      9 C41         10.7230   -18.3630    48.5900 cx         1 8KT       0.095700
     10 C42         11.7480   -19.4040    48.9600 c3         1 8KT       0.342000
     11 F43         12.0540   -20.1570    47.9040 f          1 8KT      -0.107000
     12 F44         11.2960   -20.2190    49.9160 f          1 8KT      -0.107000
     13 F45         12.8790   -18.8510    49.4020 f          1 8KT      -0.107000
     14 N46         10.6940   -17.9980    47.1780 n2         1 8KT      -0.113700
     15 N47          9.8160   -18.7550    47.5180 n2         1 8KT      -0.113700
     16 H30         10.5690   -16.3500    52.7900 ha         1 8KT       0.133000
     17 H31         11.4220   -18.0190    51.2760 ha         1 8KT       0.095000
     18 H32          8.9110   -16.4130    48.1570 ha         1 8KT       0.095000
     19 H33          8.0820   -14.7540    49.7130 ha         1 8KT       0.133000
     20 OXT          7.8890   -13.5740    51.8900 o          1 8KT      -0.712500
@<TRIPOS>BOND
     1     1     2 1   
     2     1     3 1   
     3     1    20 1   
     4     3     4 ar  
     5     3     8 ar  
     6     4     5 ar  
     7     4    16 1   
     8     5     6 ar  
     9     5    17 1   
    10     6     7 ar  
    11     6     9 1   
    12     7     8 ar  
    13     7    18 1   
    14     8    19 1   
    15     9    10 1   
    16     9    14 1   
    17     9    15 1   
    18    10    11 1   
    19    10    12 1   
    20    10    13 1   
    21    14    15 2   
@<TRIPOS>SUBSTRUCTURE
     1 8KT         1 TEMP              0 ****  ****    0 ROOT
