@<TRIPOS>MOLECULE
8KU
   62    66     1     0     0
SMALL
abcg2


@<TRIPOS>ATOM
      1 C1          -0.3220     2.8790     2.1880 c          1 8KU       0.509200
      2 C10          7.2530    -3.5600    -1.9120 ca         1 8KU      -0.150000
      3 C11          7.6670    -2.8060    -0.8150 ca         1 8KU      -0.057000
      4 C12          6.7150    -2.1710    -0.0410 ca         1 8KU      -0.175300
      5 C13          6.8250    -1.3320     1.1970 c5         1 8KU      -0.047100
      6 C14          0.2460     2.1410    -0.0220 cc         1 8KU       0.473900
      7 C15         -0.1980     2.0290    -1.4520 c5         1 8KU       0.074400
      8 C17         -3.4750     0.1330    -1.3550 c3         1 8KU      -0.083400
      9 C18         -5.5520    -1.6020    -0.7990 ca         1 8KU      -0.115000
     10 C19         -6.2700    -0.8650    -1.7410 ca         1 8KU      -0.121000
     11 C2           1.0430     2.5120     2.5530 cc         1 8KU       0.050900
     12 C20         -7.5940    -1.1690    -2.0220 ca         1 8KU      -0.094000
     13 C21         -8.2320    -2.2130    -1.3700 ca         1 8KU      -0.109000
     14 C22         -7.5360    -2.9590    -0.4300 ca         1 8KU      -0.086000
     15 C23         -6.2150    -2.6510    -0.1560 ca         1 8KU       0.122000
     16 C24         -2.3300     2.5050    -2.5220 c5         1 8KU       0.103000
     17 C25         -1.2170     3.2510    -3.2460 c5         1 8KU      -0.096400
     18 C26         -0.1300     3.3750    -2.1880 c5         1 8KU      -0.088400
     19 C3           1.8670     2.0000     1.5960 cd         1 8KU       0.028400
     20 C4           3.2790     1.5910     1.8760 c          1 8KU       0.630300
     21 C5           5.2870     0.6490     0.8500 c3         1 8KU       0.092000
     22 C6           5.3890    -0.7910     1.3310 c5         1 8KU       0.133300
     23 C7           5.3690    -2.2930    -0.3600 ca         1 8KU       0.124100
     24 C8           4.9320    -3.0360    -1.4420 ca         1 8KU      -0.139000
     25 C9           5.9010    -3.6710    -2.2150 ca         1 8KU      -0.079000
     26 N1           3.9330     1.1370     0.7980 ns         1 8KU      -0.485900
     27 N2           1.4420     1.8190     0.3070 nd         1 8KU      -0.609300
     28 N3          -1.5970     1.6480    -1.5870 n          1 8KU      -0.432800
     29 N4          -0.6280     2.6670     0.8750 ns         1 8KU      -0.382400
     30 O1          -1.1120     3.3360     3.0000 o          1 8KU      -0.556000
     31 O2           1.3720     2.7140     3.8230 oh         1 8KU      -0.470100
     32 O3           4.5620    -1.6250     0.4930 os         1 8KU      -0.327100
     33 O4           3.7790     1.6760     2.9880 o          1 8KU      -0.590100
     34 O5          -1.3190    -0.2300    -0.3830 o          1 8KU      -0.556100
     35 S1          -3.8700    -1.3230    -0.3630 ss         1 8KU      -0.018000
     36 CL1         -5.3590    -3.5960     1.0180 cl         1 8KU      -0.178000
     37 H1           7.9860    -4.0610    -2.5300 ha         1 8KU       0.114000
     38 H2           8.7200    -2.7210    -0.5730 ha         1 8KU       0.113000
     39 H3           7.1160    -1.9300     2.0630 hc         1 8KU       0.064700
     40 H4           7.5540    -0.5240     1.1040 hc         1 8KU       0.064700
     41 H5           0.4550     1.2960    -1.9320 h1         1 8KU       0.099700
     42 H6          -4.1350     0.9660    -1.1040 h1         1 8KU       0.082200
     43 H7          -3.5940    -0.0810    -2.4200 h1         1 8KU       0.082200
     44 H8          -5.8060    -0.0450    -2.2700 ha         1 8KU       0.107000
     45 H9          -8.1260    -0.5820    -2.7580 ha         1 8KU       0.115000
     46 H10         -9.2640    -2.4510    -1.5870 ha         1 8KU       0.121000
     47 H11         -8.0160    -3.7770     0.0900 ha         1 8KU       0.131000
     48 H12         -2.9900     3.1890    -1.9830 h1         1 8KU       0.051200
     49 H13         -2.9380     1.9140    -3.2060 h1         1 8KU       0.051200
     50 H14         -0.8610     2.6600    -4.0910 hc         1 8KU       0.063200
     51 H15         -1.5500     4.2160    -3.6250 hc         1 8KU       0.063200
     52 H16         -0.3550     4.1980    -1.5050 hc         1 8KU       0.066700
     53 H17          0.8630     3.5490    -2.5980 hc         1 8KU       0.066700
     54 H18          5.8850     1.2790     1.5100 h1         1 8KU       0.060200
     55 H19          5.7120     0.7400    -0.1520 h1         1 8KU       0.060200
     56 H20          5.0050    -0.8740     2.3480 h1         1 8KU       0.097700
     57 H21          3.8800    -3.1180    -1.6830 ha         1 8KU       0.130000
     58 H22          5.5900    -4.2570    -3.0710 ha         1 8KU       0.112000
     59 H23          3.4160     1.0700    -0.0650 hn         1 8KU       0.345500
     60 H24         -1.5670     2.9070     0.5760 hn         1 8KU       0.338500
     61 H25          0.5950     3.0710     4.2820 ho         1 8KU       0.491000
     62 C16         -2.0340     0.4890    -1.0640 c          1 8KU       0.612100
@<TRIPOS>BOND
     1     1    11 1   
     2     1    29 1   
     3     1    30 2   
     4     2     3 ar  
     5     2    25 ar  
     6     2    37 1   
     7     3     4 ar  
     8     3    38 1   
     9     4     5 1   
    10     4    23 ar  
    11     5    22 1   
    12     5    39 1   
    13     5    40 1   
    14     6     7 1   
    15     6    27 2   
    16     6    29 1   
    17     7    18 1   
    18     7    28 1   
    19     7    41 1   
    20     8    35 1   
    21     8    42 1   
    22     8    43 1   
    23     8    62 1   
    24     9    10 ar  
    25     9    15 ar  
    26     9    35 1   
    27    10    12 ar  
    28    10    44 1   
    29    11    19 2   
    30    11    31 1   
    31    12    13 ar  
    32    12    45 1   
    33    13    14 ar  
    34    13    46 1   
    35    14    15 ar  
    36    14    47 1   
    37    15    36 1   
    38    16    17 1   
    39    16    28 1   
    40    16    48 1   
    41    16    49 1   
    42    17    18 1   
    43    17    50 1   
    44    17    51 1   
    45    18    52 1   
    46    18    53 1   
    47    19    20 1   
    48    19    27 1   
    49    20    26 1   
    50    20    33 2   
    51    21    22 1   
    52    21    26 1   
    53    21    54 1   
    54    21    55 1   
    55    22    32 1   
    56    22    56 1   
    57    23    24 ar  
    58    23    32 1   
    59    24    25 ar  
    60    24    57 1   
    61    25    58 1   
    62    26    59 1   
    63    28    62 1   
    64    29    60 1   
    65    31    61 1   
    66    34    62 2   
@<TRIPOS>SUBSTRUCTURE
     1 8KU         1 TEMP              0 ****  ****    0 ROOT
