@<TRIPOS>MOLECULE
8KU
   62    66     1     0     0
SMALL
No Charge or Current Charge


@<TRIPOS>ATOM
      1 C1          -0.3400     2.5180     2.2460 c          1 8KU       0.509200
      2 C10          7.8600    -3.6050    -1.6950 ca         1 8KU      -0.150000
      3 C11          8.2080    -2.7060    -0.6670 ca         1 8KU      -0.057000
      4 C12          7.1770    -2.0820     0.0540 ca         1 8KU      -0.175300
      5 C13          7.2990    -1.1200     1.1910 c5         1 8KU      -0.047100
      6 C14          0.1970     2.0870    -0.0600 cc         1 8KU       0.473900
      7 C15         -0.3160     2.0510    -1.4960 c5         1 8KU       0.074400
      8 C17         -3.7000     0.0510    -1.4420 c3         1 8KU      -0.083400
      9 C18         -6.0570    -1.5510    -0.8200 ca         1 8KU      -0.115000
     10 C19         -6.6830    -0.7670    -1.8160 ca         1 8KU      -0.121000
     11 C2           1.0700     2.1760     2.5180 cc         1 8KU       0.050900
     12 C20         -8.0550    -0.9160    -2.0800 ca         1 8KU      -0.094000
     13 C21         -8.8180    -1.8470    -1.3580 ca         1 8KU      -0.109000
     14 C22         -8.2050    -2.6320    -0.3680 ca         1 8KU      -0.086000
     15 C23         -6.8330    -2.4870    -0.0990 ca         1 8KU       0.122000
     16 C24         -2.4790     2.4520    -2.6440 c5         1 8KU       0.103000
     17 C25         -1.3470     3.2940    -3.2830 c5         1 8KU      -0.096400
     18 C26         -0.3820     3.4890    -2.0900 c5         1 8KU      -0.088400
     19 C3           1.9680     1.8180     1.5070 cd         1 8KU       0.028400
     20 C4           3.4060     1.4810     1.8380 c          1 8KU       0.630300
     21 C5           5.5250     0.7270     0.6790 c3         1 8KU       0.092000
     22 C6           5.7860    -0.6750     1.2910 c5         1 8KU       0.133300
     23 C7           5.8580    -2.3380    -0.2320 ca         1 8KU       0.124100
     24 C8           5.4860    -3.2340    -1.2420 ca         1 8KU      -0.139000
     25 C9           6.5020    -3.8710    -1.9830 ca         1 8KU      -0.079000
     26 N1           4.1210     1.1570     0.7070 ns         1 8KU      -0.485900
     27 N2           1.4790     1.7860     0.1710 nd         1 8KU      -0.609300
     28 N3          -1.7250     1.5980    -1.6980 n          1 8KU      -0.432800
     29 N4          -0.6600     2.4480     0.9410 ns         1 8KU      -0.382400
     30 O1          -1.1550     2.8390     3.1000 o          1 8KU      -0.556000
     31 O2           1.3750     2.2530     3.8440 oh         1 8KU      -0.470100
     32 O3           4.9740    -1.6640     0.5620 os         1 8KU      -0.327100
     33 O4           3.9300     1.4800     2.9470 o          1 8KU      -0.590100
     34 O5          -1.4900    -0.3710    -0.5550 o          1 8KU      -0.556100
     35 S1          -4.2990    -1.3930    -0.4490 ss         1 8KU      -0.018000
     36 Cl1         -6.1070    -3.4950     1.1530 cl         1 8KU      -0.178000
     37 H1           8.6420    -4.1000    -2.2680 ha         1 8KU       0.114000
     38 H2           9.2510    -2.5030    -0.4350 ha         1 8KU       0.113000
     39 H3           7.6400    -1.6090     2.1100 hc         1 8KU       0.064700
     40 H4           7.9780    -0.2850     0.9800 hc         1 8KU       0.064700
     41 H5           0.3560     1.4220    -2.0950 h1         1 8KU       0.099700
     42 H6          -4.2930     0.9340    -1.1780 h1         1 8KU       0.082200
     43 H7          -3.8230    -0.1630    -2.5090 h1         1 8KU       0.082200
     44 H8          -6.1240    -0.0400    -2.3980 ha         1 8KU       0.107000
     45 H9          -8.5290    -0.3080    -2.8490 ha         1 8KU       0.115000
     46 H10         -9.8800    -1.9610    -1.5640 ha         1 8KU       0.121000
     47 H11         -8.7920    -3.3550     0.1930 ha         1 8KU       0.131000
     48 H12         -3.1960     3.0860    -2.1040 h1         1 8KU       0.051200
     49 H13         -3.0240     1.8720    -3.4010 h1         1 8KU       0.051200
     50 H14         -0.8610     2.7450    -4.0990 hc         1 8KU       0.063200
     51 H15         -1.7120     4.2410    -3.6970 hc         1 8KU       0.063200
     52 H16         -0.7900     4.2100    -1.3710 hc         1 8KU       0.066700
     53 H17          0.6040     3.8580    -2.3970 hc         1 8KU       0.066700
     54 H18          6.1260     1.4680     1.2230 h1         1 8KU       0.060200
     55 H19          5.8660     0.7270    -0.3640 h1         1 8KU       0.060200
     56 H20          5.4580    -0.6550     2.3390 h1         1 8KU       0.097700
     57 H21          4.4370    -3.4290    -1.4490 ha         1 8KU       0.130000
     58 H22          6.2410    -4.5690    -2.7760 ha         1 8KU       0.112000
     59 H23          3.5870     1.1770    -0.1560 hn         1 8KU       0.345500
     60 H24         -1.6150     2.6710     0.7030 hn         1 8KU       0.338500
     61 H25          0.5480     2.5280     4.3060 ho         1 8KU       0.491000
     62 C16         -2.2190     0.3760    -1.1910 c          1 8KU       0.612100
@<TRIPOS>BOND
     1     1    11 1   
     2     1    29 1   
     3     1    30 2   
     4     2     3 ar  
     5     2    25 ar  
     6     2    37 1   
     7     3     4 ar  
     8     3    38 1   
     9     4     5 1   
    10     4    23 ar  
    11     5    22 1   
    12     5    39 1   
    13     5    40 1   
    14     6     7 1   
    15     6    27 2   
    16     6    29 1   
    17     7    18 1   
    18     7    28 1   
    19     7    41 1   
    20     8    35 1   
    21     8    42 1   
    22     8    43 1   
    23     8    62 1   
    24     9    10 ar  
    25     9    15 ar  
    26     9    35 1   
    27    10    12 ar  
    28    10    44 1   
    29    11    19 2   
    30    11    31 1   
    31    12    13 ar  
    32    12    45 1   
    33    13    14 ar  
    34    13    46 1   
    35    14    15 ar  
    36    14    47 1   
    37    15    36 1   
    38    16    17 1   
    39    16    28 1   
    40    16    48 1   
    41    16    49 1   
    42    17    18 1   
    43    17    50 1   
    44    17    51 1   
    45    18    52 1   
    46    18    53 1   
    47    19    20 1   
    48    19    27 1   
    49    20    26 1   
    50    20    33 2   
    51    21    22 1   
    52    21    26 1   
    53    21    54 1   
    54    21    55 1   
    55    22    32 1   
    56    22    56 1   
    57    23    24 ar  
    58    23    32 1   
    59    24    25 ar  
    60    24    57 1   
    61    25    58 1   
    62    26    59 1   
    63    28    62 1   
    64    29    60 1   
    65    31    61 1   
    66    34    62 2   
@<TRIPOS>SUBSTRUCTURE
     1 8KU         1 TEMP              0 ****  ****    0 ROOT
