@<TRIPOS>MOLECULE
8KV
   44    46     1     0     0
SMALL
abcg2


@<TRIPOS>ATOM
      1 C8          -1.8100    30.6540    -0.5170 ca         1 8KV      -0.003000
      2 C5          -0.1400    30.2720     4.1150 c3         1 8KV       0.169000
      3 C6          -0.7460    29.6460     5.3720 c3         1 8KV      -0.101100
      4 N1          -1.0160    30.0010     2.9870 ns         1 8KV      -0.519900
      5 C2           3.6420    30.0090     4.4100 ca         1 8KV       0.164100
      6 N2          -1.6560    30.1710     0.7890 ns         1 8KV      -0.165000
      7 N3           7.4760    27.8350     3.4560 nc         1 8KV      -0.679000
      8 C4           1.2840    29.7830     3.8990 ca         1 8KV      -0.051300
      9 O2          -0.1820    31.6840     1.7060 o          1 8KV      -0.618100
     10 C7          -0.8960    30.6880     1.8150 c          1 8KV       0.658100
     11 C1           4.4610    31.7930     5.7860 c3         1 8KV       0.148900
     12 C10         -2.7060    30.2400    -2.7300 ca         1 8KV      -0.081500
     13 C11         -2.2380    31.4760    -3.1670 ca         1 8KV      -0.140000
     14 C12         -1.5590    32.2940    -2.2700 ca         1 8KV      -0.081500
     15 C13         -1.3430    31.8990    -0.9530 ca         1 8KV      -0.153500
     16 C14          1.5650    28.6560     3.1330 ca         1 8KV      -0.140000
     17 C15          2.8710    28.2080     3.0080 ca         1 8KV      -0.050000
     18 C16          3.9350    28.8620     3.6380 ca         1 8KV      -0.150500
     19 C17          5.2920    28.3730     3.4940 cd         1 8KV       0.176500
     20 C18          6.5290    28.7270     3.9490 cc         1 8KV       0.254900
     21 C19          6.8020    26.9980     2.7400 cd         1 8KV       0.435900
     22 C3           2.3290    30.4530     4.5300 ca         1 8KV      -0.184000
     23 C9          -2.4940    29.8310    -1.4220 ca         1 8KV      -0.153500
     24 O3           5.4750    27.2500     2.7090 os         1 8KV      -0.286000
     25 H1          -0.1030    31.3550     4.2460 h1         1 8KV       0.084700
     26 H2          -0.1140    29.8540     6.2350 hc         1 8KV       0.047033
     27 H3          -1.7410    30.0550     5.5590 hc         1 8KV       0.047033
     28 H4          -0.8250    28.5630     5.2590 hc         1 8KV       0.047033
     29 H5          -1.5320    29.1350     3.0020 hn         1 8KV       0.304500
     30 H6          -2.1410    29.3070     0.9780 hn         1 8KV       0.141000
     31 H7           5.4370    32.1030     6.1490 h1         1 8KV       0.045700
     32 H8           4.0220    32.5890     5.1810 h1         1 8KV       0.045700
     33 H9           3.8060    31.5700     6.6310 h1         1 8KV       0.045700
     34 H10         -3.2380    29.5860    -3.4100 ha         1 8KV       0.112500
     35 H11         -2.4010    31.7960    -4.1880 ha         1 8KV       0.115000
     36 H12         -1.1910    33.2600    -2.5920 ha         1 8KV       0.112500
     37 H13         -0.8190    32.5430    -0.2680 ha         1 8KV       0.127500
     38 H14          0.7680    28.1290     2.6260 ha         1 8KV       0.111000
     39 H15          3.0780    27.3310     2.4120 ha         1 8KV       0.128000
     40 H16          6.7970    29.5470     4.5870 h4         1 8KV       0.058100
     41 H17          7.1530    26.1470     2.1800 h5         1 8KV       0.080100
     42 H18          2.1080    31.3340     5.1170 ha         1 8KV       0.121000
     43 H19         -2.8590    28.8660    -1.0890 ha         1 8KV       0.127500
     44 O1           4.6960    30.6250     4.9990 os         1 8KV      -0.350100
@<TRIPOS>BOND
     1     1     6 1   
     2     1    15 ar  
     3     1    23 ar  
     4     2     3 1   
     5     2     4 1   
     6     2     8 1   
     7     2    25 1   
     8     3    26 1   
     9     3    27 1   
    10     3    28 1   
    11     4    10 1   
    12     4    29 1   
    13     5    18 ar  
    14     5    22 ar  
    15     5    44 1   
    16     6    10 1   
    17     6    30 1   
    18     7    20 1   
    19     7    21 2   
    20     8    16 ar  
    21     8    22 ar  
    22     9    10 2   
    23    11    31 1   
    24    11    32 1   
    25    11    33 1   
    26    11    44 1   
    27    12    13 ar  
    28    12    23 ar  
    29    12    34 1   
    30    13    14 ar  
    31    13    35 1   
    32    14    15 ar  
    33    14    36 1   
    34    15    37 1   
    35    16    17 ar  
    36    16    38 1   
    37    17    18 ar  
    38    17    39 1   
    39    18    19 1   
    40    19    20 2   
    41    19    24 1   
    42    20    40 1   
    43    21    24 1   
    44    21    41 1   
    45    22    42 1   
    46    23    43 1   
@<TRIPOS>SUBSTRUCTURE
     1 8KV         1 TEMP              0 ****  ****    0 ROOT
