@<TRIPOS>MOLECULE
8KV
   44    46     1     0     0
SMALL
No Charge or Current Charge


@<TRIPOS>ATOM
      1 C8          -2.0950    31.0380    -0.7420 ca         1 8KV      -0.003000
      2 C5           0.2980    30.2600     3.6230 c3         1 8KV       0.169000
      3 C6          -0.7660    29.7070     4.5940 c3         1 8KV      -0.101100
      4 N1          -0.1240    30.1070     2.2310 ns         1 8KV      -0.519900
      5 C2           4.0620    29.8260     4.3310 ca         1 8KV       0.164100
      6 N2          -1.2550    30.5230     0.2830 ns         1 8KV      -0.165000
      7 N3           7.6640    27.1860     4.7660 nc         1 8KV      -0.679000
      8 C4           1.6670    29.6130     3.8330 ca         1 8KV      -0.051300
      9 O2          -1.5790    31.8560     2.1540 o          1 8KV      -0.618100
     10 C7          -1.0400    30.9110     1.5960 c          1 8KV       0.658100
     11 C1           5.0870    32.0390     4.7750 c3         1 8KV       0.148900
     12 C10         -2.8610    30.8490    -3.0580 ca         1 8KV      -0.081500
     13 C11         -3.7100    31.9520    -2.8750 ca         1 8KV      -0.140000
     14 C12         -3.7550    32.6000    -1.6300 ca         1 8KV      -0.081500
     15 C13         -2.9520    32.1470    -0.5680 ca         1 8KV      -0.153500
     16 C14          1.8340    28.2230     3.7090 ca         1 8KV      -0.140000
     17 C15          3.0940    27.6360     3.8970 ca         1 8KV      -0.050000
     18 C16          4.2270    28.4230     4.2110 ca         1 8KV      -0.150500
     19 C17          5.5420    27.7550     4.4020 cd         1 8KV       0.176500
     20 C18          6.7900    28.2380     4.7050 cc         1 8KV       0.254900
     21 C19          6.9070    26.1230     4.4970 cd         1 8KV       0.435900
     22 C3           2.7860    30.4070     4.1390 ca         1 8KV      -0.184000
     23 C9          -2.0590    30.3970    -1.9960 ca         1 8KV      -0.153500
     24 O3           5.5870    26.4020     4.2630 os         1 8KV      -0.286000
     25 H1           0.3960    31.3360     3.8250 h1         1 8KV       0.084700
     26 H2          -0.4270    29.8130     5.6310 hc         1 8KV       0.047033
     27 H3          -1.7100    30.2540     4.4880 hc         1 8KV       0.047033
     28 H4          -0.9640    28.6460     4.4030 hc         1 8KV       0.047033
     29 H5           0.2860    29.3570     1.6910 hn         1 8KV       0.304500
     30 H6          -0.7150    29.7180    -0.0040 hn         1 8KV       0.141000
     31 H7           6.0770    32.4470     5.0160 h1         1 8KV       0.045700
     32 H8           4.7470    32.5070     3.8420 h1         1 8KV       0.045700
     33 H9           4.4000    32.3180     5.5830 h1         1 8KV       0.045700
     34 H10         -2.8250    30.3450    -4.0210 ha         1 8KV       0.112500
     35 H11         -4.3310    32.3040    -3.6950 ha         1 8KV       0.115000
     36 H12         -4.4130    33.4550    -1.4880 ha         1 8KV       0.112500
     37 H13         -3.0140    32.6720     0.3800 ha         1 8KV       0.127500
     38 H14          0.9850    27.5890     3.4650 ha         1 8KV       0.111000
     39 H15          3.1780    26.5570     3.7940 ha         1 8KV       0.128000
     40 H16          7.1310    29.2470     4.8850 h4         1 8KV       0.058100
     41 H17          7.2250    25.0880     4.4480 h5         1 8KV       0.080100
     42 H18          2.6470    31.4800     4.2250 ha         1 8KV       0.121000
     43 H19         -1.4060    29.5400    -2.1500 ha         1 8KV       0.127500
     44 O1           5.1590    30.6080     4.6340 os         1 8KV      -0.350100
@<TRIPOS>BOND
     1     1     6 1   
     2     1    15 ar  
     3     1    23 ar  
     4     2     3 1   
     5     2     4 1   
     6     2     8 1   
     7     2    25 1   
     8     3    26 1   
     9     3    27 1   
    10     3    28 1   
    11     4    10 1   
    12     4    29 1   
    13     5    18 ar  
    14     5    22 ar  
    15     5    44 1   
    16     6    10 1   
    17     6    30 1   
    18     7    20 1   
    19     7    21 2   
    20     8    16 ar  
    21     8    22 ar  
    22     9    10 2   
    23    11    31 1   
    24    11    32 1   
    25    11    33 1   
    26    11    44 1   
    27    12    13 ar  
    28    12    23 ar  
    29    12    34 1   
    30    13    14 ar  
    31    13    35 1   
    32    14    15 ar  
    33    14    36 1   
    34    15    37 1   
    35    16    17 ar  
    36    16    38 1   
    37    17    18 ar  
    38    17    39 1   
    39    18    19 1   
    40    19    20 2   
    41    19    24 1   
    42    20    40 1   
    43    21    24 1   
    44    21    41 1   
    45    22    42 1   
    46    23    43 1   
@<TRIPOS>SUBSTRUCTURE
     1 8KV         1 TEMP              0 ****  ****    0 ROOT
