@<TRIPOS>MOLECULE
8KW
   34    35     1     0     0
SMALL
abcg2


@<TRIPOS>ATOM
      1 CAA          5.0870    -1.9220     0.4420 c3         1 8KW       0.149900
      2 OAB          3.6930    -1.9110     0.2060 os         1 8KW      -0.340100
      3 CAC          3.0830    -0.7350    -0.0250 ca         1 8KW       0.184100
      4 CAD          1.7100    -0.7900    -0.2680 ca         1 8KW      -0.186000
      5 CAK          3.7470     0.4890    -0.0320 ca         1 8KW      -0.298000
      6 CAL          3.0240     1.6540    -0.2830 ca         1 8KW       0.178100
      7 OAQ          3.6170     2.8640    -0.3060 oh         1 8KW      -0.533100
      8 CAM          1.6550     1.6030    -0.5230 ca         1 8KW      -0.181000
      9 CAE          1.0000     0.3760    -0.5170 ca         1 8KW      -0.010300
     10 CAF         -0.4870     0.3140    -0.7340 c3         1 8KW      -0.037100
     11 CAG         -1.2510     0.1990     0.5950 c3         1 8KW      -0.029100
     12 CAH         -2.7420     0.1500     0.3950 ca         1 8KW      -0.173300
     13 CAI         -3.5030     1.3120     0.5030 ca         1 8KW      -0.068000
     14 CAJ         -4.8710     1.3160     0.2750 ca         1 8KW      -0.148000
     15 CAP         -5.5040     0.1290    -0.0700 ca         1 8KW      -0.075000
     16 CAO         -4.7730    -1.0430    -0.1810 ca         1 8KW      -0.146000
     17 CAN         -3.3990    -1.0360     0.0460 ca         1 8KW       0.145100
     18 OAR         -2.7510    -2.2150    -0.0940 oh         1 8KW      -0.541100
     19 H1           5.3560    -1.3510     1.3350 h1         1 8KW       0.041033
     20 H2           5.3660    -2.9610     0.5960 h1         1 8KW       0.041033
     21 H3           5.6490    -1.5300    -0.4090 h1         1 8KW       0.041033
     22 H4           1.2080    -1.7510    -0.2680 ha         1 8KW       0.125000
     23 H5           4.8130     0.5540     0.1480 ha         1 8KW       0.116000
     24 H6           4.5640     2.7790    -0.1470 ho         1 8KW       0.464000
     25 H7           1.1090     2.5180    -0.7220 ha         1 8KW       0.131000
     26 H8          -0.8280     1.2110    -1.2540 hc         1 8KW       0.056200
     27 H9          -0.7300    -0.5320    -1.3810 hc         1 8KW       0.056200
     28 H10         -0.8860    -0.6700     1.1540 hc         1 8KW       0.050200
     29 H11         -1.0040     1.0590     1.2190 hc         1 8KW       0.050200
     30 H12         -3.0040     2.2340     0.7760 ha         1 8KW       0.110000
     31 H13         -5.4370     2.2340     0.3670 ha         1 8KW       0.116000
     32 H14         -6.5710     0.1100    -0.2480 ha         1 8KW       0.114000
     33 H15         -5.2610    -1.9730    -0.4450 ha         1 8KW       0.128000
     34 H16         -1.8350    -2.1410     0.1910 ho         1 8KW       0.467000
@<TRIPOS>BOND
     1     1     2 1   
     2     1    19 1   
     3     1    20 1   
     4     1    21 1   
     5     2     3 1   
     6     3     4 ar  
     7     3     5 ar  
     8     4     9 ar  
     9     4    22 1   
    10     5     6 ar  
    11     5    23 1   
    12     6     7 1   
    13     6     8 ar  
    14     7    24 1   
    15     8     9 ar  
    16     8    25 1   
    17     9    10 1   
    18    10    11 1   
    19    10    26 1   
    20    10    27 1   
    21    11    12 1   
    22    11    28 1   
    23    11    29 1   
    24    12    13 ar  
    25    12    17 ar  
    26    13    14 ar  
    27    13    30 1   
    28    14    15 ar  
    29    14    31 1   
    30    15    16 ar  
    31    15    32 1   
    32    16    17 ar  
    33    16    33 1   
    34    17    18 1   
    35    18    34 1   
@<TRIPOS>SUBSTRUCTURE
     1 8KW         1 TEMP              0 ****  ****    0 ROOT
