@<TRIPOS>MOLECULE
8KW
   34    35     1     0     0
SMALL
No Charge or Current Charge


@<TRIPOS>ATOM
      1 CAA          5.2960    -1.9750     0.1830 c3         1 8KW       0.149900
      2 OAB          3.8780    -1.9450    -0.0590 os         1 8KW      -0.340100
      3 CAC          3.1690    -0.7640    -0.1280 ca         1 8KW       0.184100
      4 CAD          1.7880    -0.8450    -0.3670 ca         1 8KW      -0.186000
      5 CAK          3.7780     0.4980     0.0320 ca         1 8KW      -0.298000
      6 CAL          2.9980     1.6580    -0.0500 ca         1 8KW       0.178100
      7 OAQ          3.5810     2.8760     0.1050 oh         1 8KW      -0.533100
      8 CAM          1.6200     1.5730    -0.2880 ca         1 8KW      -0.181000
      9 CAE          1.0030     0.3200    -0.4500 ca         1 8KW      -0.010300
     10 CAF         -0.4950     0.2270    -0.7040 c3         1 8KW      -0.037100
     11 CAG         -1.3140     0.2980     0.6020 c3         1 8KW      -0.029100
     12 CAH         -2.8200     0.2080     0.3490 ca         1 8KW      -0.173300
     13 CAI         -3.5590     1.4020     0.2160 ca         1 8KW      -0.068000
     14 CAJ         -4.9440     1.3620    -0.0220 ca         1 8KW      -0.148000
     15 CAP         -5.6050     0.1290    -0.1300 ca         1 8KW      -0.075000
     16 CAO         -4.8770    -1.0650    -0.0010 ca         1 8KW      -0.146000
     17 CAN         -3.4940    -1.0310     0.2360 ca         1 8KW       0.145100
     18 OAR         -2.8210    -2.2110     0.3510 oh         1 8KW      -0.541100
     19 H1           5.5380    -1.5170     1.1500 h1         1 8KW       0.041033
     20 H2           5.6570    -3.0120     0.1990 h1         1 8KW       0.041033
     21 H3           5.8380    -1.4400    -0.6070 h1         1 8KW       0.041033
     22 H4           1.3270    -1.8220    -0.4880 ha         1 8KW       0.125000
     23 H5           4.8440     0.5850     0.2170 ha         1 8KW       0.116000
     24 H6           4.5390     2.7360     0.2620 ho         1 8KW       0.464000
     25 H7           1.0280     2.4840    -0.3470 ha         1 8KW       0.131000
     26 H8          -0.8120     1.0420    -1.3680 hc         1 8KW       0.056200
     27 H9          -0.7330    -0.7030    -1.2340 hc         1 8KW       0.056200
     28 H10         -0.9800    -0.4910     1.2870 hc         1 8KW       0.050200
     29 H11         -1.0770     1.2410     1.1120 hc         1 8KW       0.050200
     30 H12         -3.0600     2.3650     0.2950 ha         1 8KW       0.110000
     31 H13         -5.5040     2.2890    -0.1230 ha         1 8KW       0.116000
     32 H14         -6.6770     0.0980    -0.3150 ha         1 8KW       0.114000
     33 H15         -5.3880    -2.0210    -0.0870 ha         1 8KW       0.128000
     34 H16         -1.8770    -2.0080     0.5140 ho         1 8KW       0.467000
@<TRIPOS>BOND
     1     1     2 1   
     2     1    19 1   
     3     1    20 1   
     4     1    21 1   
     5     2     3 1   
     6     3     4 ar  
     7     3     5 ar  
     8     4     9 ar  
     9     4    22 1   
    10     5     6 ar  
    11     5    23 1   
    12     6     7 1   
    13     6     8 ar  
    14     7    24 1   
    15     8     9 ar  
    16     8    25 1   
    17     9    10 1   
    18    10    11 1   
    19    10    26 1   
    20    10    27 1   
    21    11    12 1   
    22    11    28 1   
    23    11    29 1   
    24    12    13 ar  
    25    12    17 ar  
    26    13    14 ar  
    27    13    30 1   
    28    14    15 ar  
    29    14    31 1   
    30    15    16 ar  
    31    15    32 1   
    32    16    17 ar  
    33    16    33 1   
    34    17    18 1   
    35    18    34 1   
@<TRIPOS>SUBSTRUCTURE
     1 8KW         1 TEMP              0 ****  ****    0 ROOT
