@<TRIPOS>MOLECULE
8KX
   44    47     1     0     0
SMALL
abcg2


@<TRIPOS>ATOM
      1 N            2.5920     2.5800     0.4550 nu         1 8KX      -0.870100
      2 C            3.6250    -2.9040    -0.6330 c3         1 8KX       0.359300
      3 O            1.0580     4.4350     1.0760 o          1 8KX      -0.517500
      4 C01         -5.7270    -2.7230    -0.2620 ca         1 8KX      -0.100000
      5 C02         -5.4130    -2.9190     1.0770 ca         1 8KX      -0.087000
      6 C03         -4.3900    -2.1940     1.6660 ca         1 8KX      -0.067000
      7 C04         -3.6700    -1.2670     0.9190 ca         1 8KX      -0.122600
      8 C05         -3.9850    -1.0720    -0.4300 ca         1 8KX      -0.137600
      9 C06         -5.0160    -1.8040    -1.0150 ca         1 8KX      -0.058000
     10 C07         -2.5800    -0.5040     1.5720 c          1 8KX       0.592300
     11 C08         -1.8330     0.4680     0.7460 ca         1 8KX      -0.147600
     12 C09         -2.1510     0.6570    -0.6130 ca         1 8KX      -0.167600
     13 C10         -3.2370    -0.1010    -1.2480 c          1 8KX       0.610300
     14 C11         -0.8080     1.1870     1.3210 ca         1 8KX       0.028000
     15 C12         -0.0930     2.1020     0.5550 ca         1 8KX      -0.307500
     16 C13         -0.3820     2.3080    -0.7850 ca         1 8KX       0.213100
     17 C14         -1.4310     1.5700    -1.3780 ca         1 8KX       0.107100
     18 O02         -2.3110    -0.6720     2.7440 o          1 8KX      -0.501100
     19 O03         -1.6450     1.8170    -2.6630 oh         1 8KX      -0.566100
     20 O04          0.3340     3.1710    -1.4940 oh         1 8KX      -0.534100
     21 S            1.2320     3.0160     1.3070 sy         1 8KX       1.165600
     22 O05          1.3650     2.5200     2.6620 o          1 8KX      -0.517500
     23 C15          2.8500     1.2160     0.1940 ca         1 8KX       0.286000
     24 C16          3.0370     0.3120     1.2370 ca         1 8KX      -0.137500
     25 C17          3.2880    -1.0180     0.9540 ca         1 8KX      -0.040500
     26 C18          3.3800    -1.4540    -0.3640 ca         1 8KX      -0.208300
     27 C19          3.2100    -0.5490    -1.4020 ca         1 8KX      -0.040500
     28 C20          2.9340     0.7790    -1.1230 ca         1 8KX      -0.137500
     29 F01          3.9810    -3.1400    -1.8990 f          1 8KX      -0.112667
     30 F02          4.5940    -3.4010     0.1470 f          1 8KX      -0.112667
     31 F            2.5290    -3.6410    -0.3930 f          1 8KX      -0.112667
     32 H1           2.7410     3.1930    -0.3390 hn         1 8KX       0.502000
     33 H2          -6.5260    -3.2890    -0.7200 ha         1 8KX       0.125000
     34 H3          -5.9670    -3.6380     1.6650 ha         1 8KX       0.125000
     35 H4          -4.1490    -2.3480     2.7090 ha         1 8KX       0.143000
     36 H5          -5.2620    -1.6550    -2.0570 ha         1 8KX       0.139000
     37 H6          -0.5590     1.0380     2.3620 ha         1 8KX       0.171000
     38 H7          -2.3920     1.2510    -2.9660 ho         1 8KX       0.531000
     39 H8           0.0540     3.1880    -2.4210 ho         1 8KX       0.513000
     40 H9           3.0050     0.6390     2.2650 ha         1 8KX       0.139500
     41 H10          3.4280    -1.7040     1.7780 ha         1 8KX       0.135000
     42 H11          3.2780    -0.8590    -2.4350 ha         1 8KX       0.135000
     43 H12          2.7890     1.4770    -1.9380 ha         1 8KX       0.139500
     44 O01         -3.5100     0.0720    -2.4300 o          1 8KX      -0.556100
@<TRIPOS>BOND
     1     1    21 1   
     2     1    23 1   
     3     1    32 1   
     4     2    26 1   
     5     2    29 1   
     6     2    30 1   
     7     2    31 1   
     8     3    21 2   
     9     4     5 ar  
    10     4     9 ar  
    11     4    33 1   
    12     5     6 ar  
    13     5    34 1   
    14     6     7 ar  
    15     6    35 1   
    16     7     8 ar  
    17     7    10 1   
    18     8     9 ar  
    19     8    13 1   
    20     9    36 1   
    21    10    11 1   
    22    10    18 2   
    23    11    12 ar  
    24    11    14 ar  
    25    12    13 1   
    26    12    17 ar  
    27    13    44 2   
    28    14    15 ar  
    29    14    37 1   
    30    15    16 ar  
    31    15    21 1   
    32    16    17 ar  
    33    16    20 1   
    34    17    19 1   
    35    19    38 1   
    36    20    39 1   
    37    21    22 2   
    38    23    24 ar  
    39    23    28 ar  
    40    24    25 ar  
    41    24    40 1   
    42    25    26 ar  
    43    25    41 1   
    44    26    27 ar  
    45    27    28 ar  
    46    27    42 1   
    47    28    43 1   
@<TRIPOS>SUBSTRUCTURE
     1 8KX         1 TEMP              0 ****  ****    0 ROOT
