@<TRIPOS>MOLECULE
8KX
   44    47     1     0     0
SMALL
No Charge or Current Charge


@<TRIPOS>ATOM
      1 N            2.5770     2.4790     0.4540 nu         1 8KX      -0.870100
      2 C            4.2460    -2.8730    -0.8740 c3         1 8KX       0.359300
      3 O            1.1470     4.4210     0.9050 o          1 8KX      -0.517500
      4 C01         -6.0680    -2.6800    -0.0300 ca         1 8KX      -0.100000
      5 C02         -5.7470    -2.8170     1.3280 ca         1 8KX      -0.087000
      6 C03         -4.6800    -2.0840     1.8730 ca         1 8KX      -0.067000
      7 C04         -3.9210    -1.2050     1.0660 ca         1 8KX      -0.122600
      8 C05         -4.2460    -1.0670    -0.3070 ca         1 8KX      -0.137600
      9 C06         -5.3230    -1.8120    -0.8420 ca         1 8KX      -0.058000
     10 C07         -2.7790    -0.4280     1.6740 c          1 8KX       0.592300
     11 C08         -1.9920     0.5010     0.7770 ca         1 8KX      -0.147600
     12 C09         -2.3120     0.6430    -0.6000 ca         1 8KX      -0.167600
     13 C10         -3.4610    -0.1400    -1.2020 c          1 8KX       0.610300
     14 C11         -0.9180     1.2350     1.3300 ca         1 8KX       0.028000
     15 C12         -0.1550     2.1120     0.5360 ca         1 8KX      -0.307500
     16 C13         -0.4640     2.2510    -0.8250 ca         1 8KX       0.213100
     17 C14         -1.5340     1.5260    -1.3920 ca         1 8KX       0.107100
     18 O02         -2.4970    -0.5470     2.8620 o          1 8KX      -0.501100
     19 O03         -1.7970     1.6950    -2.7300 oh         1 8KX      -0.566100
     20 O04          0.2620     3.0670    -1.6430 oh         1 8KX      -0.534100
     21 S            1.2130     3.0060     1.2760 sy         1 8KX       1.165600
     22 O05          1.4170     2.5790     2.6630 o          1 8KX      -0.517500
     23 C15          2.9710     1.1750     0.1700 ca         1 8KX       0.286000
     24 C16          2.6340     0.0850     0.9940 ca         1 8KX      -0.137500
     25 C17          3.0440    -1.2170     0.6600 ca         1 8KX      -0.040500
     26 C18          3.8090    -1.4510    -0.5020 ca         1 8KX      -0.208300
     27 C19          4.1450    -0.3570    -1.3270 ca         1 8KX      -0.040500
     28 C20          3.7310     0.9430    -0.9870 ca         1 8KX      -0.137500
     29 F01          5.4030    -2.8890    -1.5750 f          1 8KX      -0.112667
     30 F02          4.4440    -3.6510     0.2150 f          1 8KX      -0.112667
     31 F            3.3140    -3.4880    -1.6350 f          1 8KX      -0.112667
     32 H1           2.6660     3.1420    -0.3040 hn         1 8KX       0.502000
     33 H2          -6.8940    -3.2480    -0.4530 ha         1 8KX       0.125000
     34 H3          -6.3230    -3.4900     1.9590 ha         1 8KX       0.125000
     35 H4          -4.4470    -2.2040     2.9290 ha         1 8KX       0.143000
     36 H5          -5.5880    -1.7200    -1.8940 ha         1 8KX       0.139000
     37 H6          -0.6780     1.1200     2.3880 ha         1 8KX       0.171000
     38 H7          -2.5730     1.1140    -2.9490 ho         1 8KX       0.531000
     39 H8          -0.1590     2.9860    -2.5290 ho         1 8KX       0.513000
     40 H9           2.0560     0.2310     1.8990 ha         1 8KX       0.139500
     41 H10          2.7620    -2.0430     1.3100 ha         1 8KX       0.135000
     42 H11          4.7240    -0.5070    -2.2370 ha         1 8KX       0.135000
     43 H12          4.0010     1.7720    -1.6350 ha         1 8KX       0.139500
     44 O01         -3.7460    -0.0230    -2.3920 o          1 8KX      -0.556100
@<TRIPOS>BOND
     1     1    21 1   
     2     1    23 1   
     3     1    32 1   
     4     2    26 1   
     5     2    29 1   
     6     2    30 1   
     7     2    31 1   
     8     3    21 2   
     9     4     5 ar  
    10     4     9 ar  
    11     4    33 1   
    12     5     6 ar  
    13     5    34 1   
    14     6     7 ar  
    15     6    35 1   
    16     7     8 ar  
    17     7    10 1   
    18     8     9 ar  
    19     8    13 1   
    20     9    36 1   
    21    10    11 1   
    22    10    18 2   
    23    11    12 ar  
    24    11    14 ar  
    25    12    13 1   
    26    12    17 ar  
    27    13    44 2   
    28    14    15 ar  
    29    14    37 1   
    30    15    16 ar  
    31    15    21 1   
    32    16    17 ar  
    33    16    20 1   
    34    17    19 1   
    35    19    38 1   
    36    20    39 1   
    37    21    22 2   
    38    23    24 ar  
    39    23    28 ar  
    40    24    25 ar  
    41    24    40 1   
    42    25    26 ar  
    43    25    41 1   
    44    26    27 ar  
    45    27    28 ar  
    46    27    42 1   
    47    28    43 1   
@<TRIPOS>SUBSTRUCTURE
     1 8KX         1 TEMP              0 ****  ****    0 ROOT
