@<TRIPOS>MOLECULE
8KY
   50    51     1     0     0
SMALL
No Charge or Current Charge


@<TRIPOS>ATOM
      1 C13          3.3250     2.9170    -1.6890 c3         1 8KY      -0.102100
      2 O1          -4.5560    -1.2460     0.1760 os         1 8KY      -0.273100
      3 C2           5.2280     0.6810    -1.8310 ca         1 8KY      -0.100000
      4 C1           4.3690     0.7630    -0.7080 ca         1 8KY      -0.098300
      5 C12          3.6900     2.6600     0.8010 c3         1 8KY      -0.102100
      6 C5           5.3650    -1.3270     0.1450 ca         1 8KY      -0.050800
      7 C18         -2.3810    -0.1340     0.0310 ca         1 8KY      -0.282000
      8 C4           6.2060    -1.3810    -0.9800 ca         1 8KY      -0.100000
      9 O3          -6.2450    -3.4020     0.0610 o          1 8KY      -0.708000
     10 O4           0.6810     3.0450     0.1060 o          1 8KY      -0.634100
     11 C17         -1.6120     1.0410     0.1170 ca         1 8KY       0.029000
     12 C3           6.1370    -0.3820    -1.9610 ca         1 8KY      -0.118000
     13 C6           4.4540    -0.2580     0.2690 ca         1 8KY      -0.093000
     14 C7           5.4330    -2.3910     1.1920 ce         1 8KY      -0.065400
     15 C8           5.5610    -3.8310     0.7230 c3         1 8KY      -0.052900
     16 C9           5.3220    -2.0990     2.5060 c2         1 8KY      -0.306000
     17 C10          0.8130     1.8520    -0.1220 c          1 8KY       0.664100
     18 C11          3.3400     1.9060    -0.5100 c3         1 8KY       0.202700
     19 C19         -3.7770    -0.1050     0.2550 ca         1 8KY       0.211100
     20 C20         -4.4020     1.1200     0.5680 ca         1 8KY       0.036000
     21 C21         -3.6400     2.2950     0.6560 ca         1 8KY      -0.054000
     22 C22         -2.2530     2.2580     0.4320 ca         1 8KY      -0.200000
     23 C24         -5.0730    -3.6740    -0.1720 c          1 8KY       0.730000
     24 C28         -4.0010    -2.5460    -0.1410 c3         1 8KY      -0.000400
     25 N3           2.0240     1.2610    -0.4140 ns         1 8KY      -0.530900
     26 N4          -0.2170     0.9250    -0.1220 ns         1 8KY      -0.162000
     27 O25         -4.6920    -4.8080    -0.4320 o          1 8KY      -0.708000
     28 Cl          -6.1420     1.2040     0.8560 cl         1 8KY      -0.192000
     29 H1           4.3060     3.3910    -1.8100 hc         1 8KY       0.047367
     30 H2           3.0580     2.4190    -2.6290 hc         1 8KY       0.047367
     31 H3           2.5990     3.7200    -1.5210 hc         1 8KY       0.047367
     32 H4           5.2120     1.4290    -2.6180 ha         1 8KY       0.114000
     33 H5           3.0740     3.5570     0.9300 hc         1 8KY       0.047367
     34 H6           3.5440     2.0250     1.6810 hc         1 8KY       0.047367
     35 H7           4.7380     2.9820     0.7860 hc         1 8KY       0.047367
     36 H8          -1.8800    -1.0660    -0.2120 ha         1 8KY       0.119000
     37 H9           6.9210    -2.1930    -1.0940 ha         1 8KY       0.111000
     38 H10          6.7920    -0.4300    -2.8290 ha         1 8KY       0.109000
     39 H11          3.7930    -0.2310     1.1320 ha         1 8KY       0.126000
     40 H12          6.6130    -4.1260     0.6370 hc         1 8KY       0.040700
     41 H13          5.0780    -4.5270     1.4200 hc         1 8KY       0.040700
     42 H14          5.0920    -3.9780    -0.2570 hc         1 8KY       0.040700
     43 H15          5.3470    -2.8760     3.2700 ha         1 8KY       0.167000
     44 H16          5.2170    -1.0740     2.8630 ha         1 8KY       0.167000
     45 H17         -4.1250     3.2370     0.8990 ha         1 8KY       0.112000
     46 H18         -1.6980     3.1870     0.5090 ha         1 8KY       0.139000
     47 H19         -3.5180    -2.5200    -1.1260 h1         1 8KY       0.017200
     48 H20         -3.2470    -2.8260     0.6050 h1         1 8KY       0.017200
     49 H21          1.9980     0.2660    -0.5930 hn         1 8KY       0.308500
     50 H22          0.0760    -0.0190    -0.3320 hn         1 8KY       0.144000
@<TRIPOS>BOND
     1     1    18 1   
     2     1    29 1   
     3     1    30 1   
     4     1    31 1   
     5     2    19 1   
     6     2    24 1   
     7     3     4 ar  
     8     3    12 ar  
     9     3    32 1   
    10     4    13 ar  
    11     4    18 1   
    12     5    18 1   
    13     5    33 1   
    14     5    34 1   
    15     5    35 1   
    16     6     8 ar  
    17     6    13 ar  
    18     6    14 1   
    19     7    11 ar  
    20     7    19 ar  
    21     7    36 1   
    22     8    12 ar  
    23     8    37 1   
    24     9    23 1   
    25    10    17 2   
    26    11    22 ar  
    27    11    26 1   
    28    12    38 1   
    29    13    39 1   
    30    14    15 1   
    31    14    16 2   
    32    15    40 1   
    33    15    41 1   
    34    15    42 1   
    35    16    43 1   
    36    16    44 1   
    37    17    25 1   
    38    17    26 1   
    39    18    25 1   
    40    19    20 ar  
    41    20    21 ar  
    42    20    28 1   
    43    21    22 ar  
    44    21    45 1   
    45    22    46 1   
    46    23    24 1   
    47    23    27 1   
    48    24    47 1   
    49    24    48 1   
    50    25    49 1   
    51    26    50 1   
@<TRIPOS>SUBSTRUCTURE
     1 8KY         1 TEMP              0 ****  ****    0 ROOT
