@<TRIPOS>MOLECULE
8KY
   50    51     1     0     0
SMALL
bcc


@<TRIPOS>ATOM
      1 C13          3.2530     2.7880    -1.7600 c3         1 8KY      -0.102100
      2 O1          -4.5680    -1.1530     0.2710 os         1 8KY      -0.249900
      3 C2           5.3520     0.8080    -1.6690 ca         1 8KY      -0.118000
      4 C1           4.3590     0.7580    -0.6970 ca         1 8KY      -0.098300
      5 C12          3.6080     2.6400     0.7120 c3         1 8KY      -0.102100
      6 C5           5.3370    -1.3080     0.1600 ca         1 8KY      -0.050800
      7 C18         -2.3760    -0.1710     0.0440 ca         1 8KY      -0.300000
      8 C4           6.3110    -1.2420    -0.8390 ca         1 8KY      -0.118000
      9 O3          -6.3100    -3.1360     0.2640 o          1 8KY      -0.813300
     10 O4           0.6550     2.8510     0.1700 o          1 8KY      -0.634100
     11 C17         -1.5650     0.9710     0.0950 ca         1 8KY       0.121600
     12 C3           6.3190    -0.1870    -1.7360 ca         1 8KY      -0.136000
     13 C6           4.3700    -0.3040     0.2060 ca         1 8KY      -0.111000
     14 C7           5.3260    -2.4170     1.1420 ce         1 8KY      -0.065400
     15 C8           5.7670    -3.7680     0.6580 c3         1 8KY      -0.052900
     16 C9           4.9430    -2.2210     2.4060 c2         1 8KY      -0.206000
     17 C10          0.8150     1.6790    -0.1350 c          1 8KY       0.798100
     18 C11          3.2870     1.8410    -0.5600 c3         1 8KY       0.202700
     19 C19         -3.7400    -0.1080     0.3010 ca         1 8KY       0.211100
     20 C20         -4.2980     1.1370     0.6170 ca         1 8KY      -0.055600
     21 C21         -3.5040     2.2630     0.6650 ca         1 8KY      -0.072000
     22 C22         -2.1410     2.2010     0.4070 ca         1 8KY      -0.218000
     23 C24         -5.1680    -3.4860    -0.0620 c          1 8KY       0.940600
     24 C28         -4.0530    -2.4270    -0.0750 c3         1 8KY      -0.023600
     25 N3           2.0130     1.1230    -0.4430 ns         1 8KY      -0.597900
     26 N4          -0.2180     0.7690    -0.1840 ns         1 8KY      -0.488100
     27 O25         -4.7720    -4.6210    -0.3920 o          1 8KY      -0.813300
     28 CL          -5.9950     1.2440     0.9420 cl         1 8KY      -0.100400
     29 H1           4.1800     3.3570    -1.8430 hc         1 8KY       0.047367
     30 H2           3.0950     2.2480    -2.6940 hc         1 8KY       0.047367
     31 H3           2.4420     3.5030    -1.6360 hc         1 8KY       0.047367
     32 H4           5.3820     1.6120    -2.3920 ha         1 8KY       0.132000
     33 H5           2.9280     3.4770     0.8420 hc         1 8KY       0.047367
     34 H6           3.5560     2.0080     1.6000 hc         1 8KY       0.047367
     35 H7           4.6220     3.0340     0.6410 hc         1 8KY       0.047367
     36 H8          -1.9190    -1.1200    -0.2030 ha         1 8KY       0.137000
     37 H9           7.0770    -2.0030    -0.9120 ha         1 8KY       0.129000
     38 H10          7.0820    -0.1380    -2.5010 ha         1 8KY       0.127000
     39 H11          3.5940    -0.3710     0.9580 ha         1 8KY       0.144000
     40 H12          6.8140    -3.7640     0.3480 hc         1 8KY       0.040700
     41 H13          5.6590    -4.5200     1.4380 hc         1 8KY       0.040700
     42 H14          5.1840    -4.0850    -0.2090 hc         1 8KY       0.040700
     43 H15          4.9200    -3.0370     3.1170 ha         1 8KY       0.117000
     44 H16          4.6580    -1.2470     2.7810 ha         1 8KY       0.117000
     45 H17         -3.9500     3.2180     0.9080 ha         1 8KY       0.130000
     46 H18         -1.5540     3.1030     0.4530 ha         1 8KY       0.157000
     47 H19         -3.5960    -2.3960    -1.0710 h1         1 8KY       0.017200
     48 H20         -3.2680    -2.7280     0.6290 h1         1 8KY       0.017200
     49 H21          2.0050     0.2010    -0.8470 hn         1 8KY       0.308500
     50 H22          0.0270    -0.1870    -0.3930 hn         1 8KY       0.310500
@<TRIPOS>BOND
     1     1    18 1   
     2     1    29 1   
     3     1    30 1   
     4     1    31 1   
     5     2    19 1   
     6     2    24 1   
     7     3     4 ar  
     8     3    12 ar  
     9     3    32 1   
    10     4    13 ar  
    11     4    18 1   
    12     5    18 1   
    13     5    33 1   
    14     5    34 1   
    15     5    35 1   
    16     6     8 ar  
    17     6    13 ar  
    18     6    14 1   
    19     7    11 ar  
    20     7    19 ar  
    21     7    36 1   
    22     8    12 ar  
    23     8    37 1   
    24     9    23 1   
    25    10    17 2   
    26    11    22 ar  
    27    11    26 1   
    28    12    38 1   
    29    13    39 1   
    30    14    15 1   
    31    14    16 2   
    32    15    40 1   
    33    15    41 1   
    34    15    42 1   
    35    16    43 1   
    36    16    44 1   
    37    17    25 1   
    38    17    26 1   
    39    18    25 1   
    40    19    20 ar  
    41    20    21 ar  
    42    20    28 1   
    43    21    22 ar  
    44    21    45 1   
    45    22    46 1   
    46    23    24 1   
    47    23    27 1   
    48    24    47 1   
    49    24    48 1   
    50    25    49 1   
    51    26    50 1   
@<TRIPOS>SUBSTRUCTURE
     1 8KY         1 TEMP              0 ****  ****    0 ROOT
