@<TRIPOS>MOLECULE
8KZ
   32    33     1     0     0
SMALL
No Charge or Current Charge


@<TRIPOS>ATOM
      1 C4         -30.0610     0.9630    20.4690 c3         1 8KZ       0.148900
      2 C5         -32.6800     2.2320    20.5250 ca         1 8KZ      -0.227000
      3 C6         -33.9590     2.8210    20.5840 ca         1 8KZ       0.022200
      4 C7         -34.3510     3.9480    19.6860 ce         1 8KZ      -0.165200
      5 C8         -33.5720     4.7040    18.8580 cf         1 8KZ      -0.133200
      6 C10        -35.2880     6.2680    17.8560 ca         1 8KZ      -0.057000
      7 C13        -33.2850     7.5300    16.3500 ca         1 8KZ      -0.178000
      8 C15        -34.8950     2.3270    21.5120 ca         1 8KZ      -0.174000
      9 C1         -34.5600     1.2700    22.3680 ca         1 8KZ       0.173100
     10 C2         -33.2870     0.6910    22.3080 ca         1 8KZ      -0.244000
     11 C3         -32.3430     1.1670    21.3890 ca         1 8KZ       0.180100
     12 O2         -31.1060     0.5560    21.3710 os         1 8KZ      -0.342100
     13 C9         -33.9530     5.8220    17.9680 ca         1 8KZ      -0.095800
     14 C11        -35.6150     7.3340    16.9980 ca         1 8KZ      -0.178000
     15 C12        -34.6120     7.9640    16.2460 ca         1 8KZ       0.146100
     16 O3         -34.9220     8.9980    15.4140 oh         1 8KZ      -0.532100
     17 C14        -32.9550     6.4640    17.2050 ca         1 8KZ      -0.057000
     18 H1         -29.1650     0.3480    20.6250 h1         1 8KZ       0.041367
     19 H2         -30.3770     0.8440    19.4250 h1         1 8KZ       0.041367
     20 H3         -29.7860     2.0120    20.6380 h1         1 8KZ       0.041367
     21 H4         -31.9570     2.5980    19.8050 ha         1 8KZ       0.119000
     22 H5         -35.4140     4.1750    19.7310 ha         1 8KZ       0.175000
     23 H6         -32.5060     4.4770    18.8320 ha         1 8KZ       0.170000
     24 H7         -36.0840     5.7970    18.4260 ha         1 8KZ       0.113500
     25 H8         -32.5070     8.0180    15.7670 ha         1 8KZ       0.121000
     26 H9         -35.8870     2.7650    21.5730 ha         1 8KZ       0.129000
     27 H10        -35.0700     0.0750    23.7680 ho         1 8KZ       0.467000
     28 H11        -33.0210    -0.1290    22.9690 ha         1 8KZ       0.127000
     29 H12        -36.6480     7.6640    16.9250 ha         1 8KZ       0.121000
     30 H13        -35.8870     9.1620    15.4700 ho         1 8KZ       0.466000
     31 H14        -31.9190     6.1390    17.2740 ha         1 8KZ       0.113500
     32 O1         -35.4780     0.8070    23.2600 oh         1 8KZ      -0.533100
@<TRIPOS>BOND
     1     1    12 1   
     2     1    18 1   
     3     1    19 1   
     4     1    20 1   
     5     2     3 ar  
     6     2    11 ar  
     7     2    21 1   
     8     3     4 1   
     9     3     8 ar  
    10     4     5 2   
    11     4    22 1   
    12     5    13 1   
    13     5    23 1   
    14     6    13 ar  
    15     6    14 ar  
    16     6    24 1   
    17     7    15 ar  
    18     7    17 ar  
    19     7    25 1   
    20     8     9 ar  
    21     8    26 1   
    22     9    10 ar  
    23     9    32 1   
    24    10    11 ar  
    25    10    28 1   
    26    11    12 1   
    27    13    17 ar  
    28    14    15 ar  
    29    14    29 1   
    30    15    16 1   
    31    16    30 1   
    32    17    31 1   
    33    27    32 1   
@<TRIPOS>SUBSTRUCTURE
     1 8KZ         1 TEMP              0 ****  ****    0 ROOT
