@<TRIPOS>MOLECULE
8KZ
   32    33     1     0     0
SMALL
abcg2


@<TRIPOS>ATOM
      1 C4         -30.1830     0.9700    20.3600 c3         1 8KZ       0.148900
      2 C5         -32.6760     2.2480    20.4650 ca         1 8KZ      -0.227000
      3 C6         -33.9410     2.8430    20.5610 ca         1 8KZ       0.022200
      4 C7         -34.3560     3.9410    19.6870 ce         1 8KZ      -0.165200
      5 C8         -33.5570     4.6490    18.8770 cf         1 8KZ      -0.133200
      6 C10        -35.2850     6.1010    17.7530 ca         1 8KZ      -0.057000
      7 C13        -33.2690     7.5750    16.5500 ca         1 8KZ      -0.178000
      8 C15        -34.8490     2.3890    21.5130 ca         1 8KZ      -0.174000
      9 C1         -34.4940     1.3570    22.3810 ca         1 8KZ       0.173100
     10 C2         -33.2420     0.7690    22.2940 ca         1 8KZ      -0.244000
     11 C3         -32.3340     1.2180    21.3310 ca         1 8KZ       0.180100
     12 O2         -31.1480     0.5830    21.3170 os         1 8KZ      -0.342100
     13 C9         -33.9550     5.7490    18.0040 ca         1 8KZ      -0.095800
     14 C11        -35.6080     7.1640    16.9300 ca         1 8KZ      -0.178000
     15 C12        -34.6000     7.9170    16.3260 ca         1 8KZ       0.146100
     16 O3         -34.8550     8.9680    15.5250 oh         1 8KZ      -0.532100
     17 C14        -32.9620     6.5070    17.3740 ca         1 8KZ      -0.057000
     18 H1         -29.3190     0.3290    20.5170 h1         1 8KZ       0.041367
     19 H2         -30.5420     0.8290    19.3370 h1         1 8KZ       0.041367
     20 H3         -29.8750     2.0110    20.4840 h1         1 8KZ       0.041367
     21 H4         -31.9810     2.5850    19.7090 ha         1 8KZ       0.119000
     22 H5         -35.4100     4.1920    19.7480 ha         1 8KZ       0.175000
     23 H6         -32.4950     4.4240    18.8550 ha         1 8KZ       0.170000
     24 H7         -36.0940     5.5360    18.1990 ha         1 8KZ       0.113500
     25 H8         -32.4780     8.1480    16.0810 ha         1 8KZ       0.121000
     26 H9         -35.8310     2.8410    21.5900 ha         1 8KZ       0.129000
     27 H10        -35.0650     0.2570    23.8390 ho         1 8KZ       0.467000
     28 H11        -32.9590    -0.0380    22.9610 ha         1 8KZ       0.127000
     29 H12        -36.6490     7.4090    16.7560 ha         1 8KZ       0.121000
     30 H13        -35.8050     9.1150    15.4490 ho         1 8KZ       0.466000
     31 H14        -31.9200     6.2570    17.5380 ha         1 8KZ       0.113500
     32 O1         -35.4120     0.9680    23.2880 oh         1 8KZ      -0.533100
@<TRIPOS>BOND
     1     1    12 1   
     2     1    18 1   
     3     1    19 1   
     4     1    20 1   
     5     2     3 ar  
     6     2    11 ar  
     7     2    21 1   
     8     3     4 1   
     9     3     8 ar  
    10     4     5 2   
    11     4    22 1   
    12     5    13 1   
    13     5    23 1   
    14     6    13 ar  
    15     6    14 ar  
    16     6    24 1   
    17     7    15 ar  
    18     7    17 ar  
    19     7    25 1   
    20     8     9 ar  
    21     8    26 1   
    22     9    10 ar  
    23     9    32 1   
    24    10    11 ar  
    25    10    28 1   
    26    11    12 1   
    27    13    17 ar  
    28    14    15 ar  
    29    14    29 1   
    30    15    16 1   
    31    16    30 1   
    32    17    31 1   
    33    27    32 1   
@<TRIPOS>SUBSTRUCTURE
     1 8KZ         1 TEMP              0 ****  ****    0 ROOT
