@<TRIPOS>MOLECULE
8L0
   41    41     1     0     0
SMALL
No Charge or Current Charge


@<TRIPOS>ATOM
      1 Cl1          5.6340    -1.5970     1.4920 cl         1 8L0      -0.206000
      2 CD1          4.7980    -0.2370     0.7520 ca         1 8L0       0.119000
      3 CG1          3.5970    -0.4490     0.0540 ca         1 8L0      -0.101000
      4 CB           2.9220     0.6350    -0.5410 ca         1 8L0      -0.099300
      5 CA           1.6200     0.4070    -1.2920 c3         1 8L0       0.156300
      6 N            0.4740     0.4690    -0.3890 ns         1 8L0      -0.518900
      7 C5          -0.8150     0.2440    -0.7760 c          1 8L0       0.649100
      8 O           -1.1330    -0.0220    -1.9220 o          1 8L0      -0.641100
      9 N2          -1.7020     0.3580     0.2590 ns         1 8L0      -0.498900
     10 C6          -3.1660     0.1450     0.1570 c3         1 8L0       0.047700
     11 C7          -3.5610    -1.2460     0.7330 c3         1 8L0      -0.085400
     12 C8          -3.0090    -2.4830    -0.0320 c3         1 8L0      -0.056700
     13 C9          -3.2650    -3.7830     0.7640 c3         1 8L0      -0.091100
     14 C10         -3.5840    -2.6030    -1.4640 c3         1 8L0      -0.091100
     15 C11         -3.9290     1.2920     0.8870 c          1 8L0       0.584100
     16 O2          -3.3870     2.0640     1.6730 o          1 8L0      -0.570100
     17 N3          -5.2870     1.3810     0.5850 ns         1 8L0      -0.372400
     18 O3          -6.0640     2.5400     0.9770 oh         1 8L0      -0.423100
     19 CG2          3.4590     1.9330    -0.4250 ca         1 8L0      -0.092000
     20 C13          4.6610     2.1430     0.2740 ca         1 8L0      -0.103000
     21 C14          5.3320     1.0570     0.8630 ca         1 8L0      -0.101000
     22 H1           3.1920    -1.4550    -0.0220 ha         1 8L0       0.127000
     23 H2           1.5000     1.1680    -2.0740 h1         1 8L0       0.066200
     24 H3           1.6390    -0.5780    -1.7790 h1         1 8L0       0.066200
     25 H4           0.6430     0.6840     0.5850 hn         1 8L0       0.310500
     26 H5          -1.3250     0.6260     1.1590 hn         1 8L0       0.313500
     27 H6          -3.4660     0.2020    -0.8960 h1         1 8L0       0.076700
     28 H7          -3.2220    -1.2910     1.7760 hc         1 8L0       0.056200
     29 H8          -4.6550    -1.3250     0.7670 hc         1 8L0       0.056200
     30 H9          -1.9210    -2.3750    -0.1190 hc         1 8L0       0.046700
     31 H10         -4.3400    -3.9580     0.8920 hc         1 8L0       0.035867
     32 H11         -2.8350    -4.6480     0.2440 hc         1 8L0       0.035867
     33 H12         -2.8050    -3.7270     1.7580 hc         1 8L0       0.035867
     34 H13         -4.6770    -2.6950    -1.4390 hc         1 8L0       0.035867
     35 H14         -3.3280    -1.7300    -2.0730 hc         1 8L0       0.035867
     36 H15         -3.1790    -3.4880    -1.9690 hc         1 8L0       0.035867
     37 H16         -5.6690     0.8210    -0.1760 hn         1 8L0       0.335500
     38 H17         -6.8580     2.1500     1.4130 ho         1 8L0       0.443000
     39 H18          2.9450     2.7790    -0.8760 ha         1 8L0       0.130000
     40 H19          5.0720     3.1470     0.3590 ha         1 8L0       0.120000
     41 H20          6.2610     1.2170     1.4040 ha         1 8L0       0.130000
@<TRIPOS>BOND
     1     1     2 1   
     2     2     3 ar  
     3     2    21 ar  
     4     3     4 ar  
     5     3    22 1   
     6     4     5 1   
     7     4    19 ar  
     8     5     6 1   
     9     5    23 1   
    10     5    24 1   
    11     6     7 1   
    12     6    25 1   
    13     7     8 2   
    14     7     9 1   
    15     9    10 1   
    16     9    26 1   
    17    10    11 1   
    18    10    15 1   
    19    10    27 1   
    20    11    12 1   
    21    11    28 1   
    22    11    29 1   
    23    12    13 1   
    24    12    14 1   
    25    12    30 1   
    26    13    31 1   
    27    13    32 1   
    28    13    33 1   
    29    14    34 1   
    30    14    35 1   
    31    14    36 1   
    32    15    16 2   
    33    15    17 1   
    34    17    18 1   
    35    17    37 1   
    36    18    38 1   
    37    19    20 ar  
    38    19    39 1   
    39    20    21 ar  
    40    20    40 1   
    41    21    41 1   
@<TRIPOS>SUBSTRUCTURE
     1 8L0         1 TEMP              0 ****  ****    0 ROOT
