@<TRIPOS>MOLECULE
8L0
   41    41     1     0     0
SMALL
bcc


@<TRIPOS>ATOM
      1 CL1          6.8730     0.8360    -0.8100 cl         1 8L0      -0.114400
      2 CD1          5.2540     1.0500    -0.2230 ca         1 8L0       0.027400
      3 CG1          4.1920     0.6130    -1.0000 ca         1 8L0      -0.119000
      4 CB           2.8900     0.7770    -0.5420 ca         1 8L0      -0.099300
      5 CA           1.7370     0.3400    -1.4120 c3         1 8L0       0.156300
      6 N            0.6720    -0.2560    -0.6530 ns         1 8L0      -0.585900
      7 C5          -0.6350     0.0600    -0.8350 c          1 8L0       0.783100
      8 O           -1.0260     0.9020    -1.6360 o          1 8L0      -0.641100
      9 N2          -1.5060    -0.6500    -0.0620 ns         1 8L0      -0.565900
     10 C6          -2.9050    -0.3180    -0.0860 c3         1 8L0       0.047700
     11 C7          -3.6890    -1.2600     0.8290 c3         1 8L0      -0.085400
     12 C8          -3.5430    -2.7480     0.5040 c3         1 8L0      -0.056700
     13 C9          -4.3920    -3.5630     1.4750 c3         1 8L0      -0.091100
     14 C10         -3.9230    -3.0640    -0.9380 c3         1 8L0      -0.091100
     15 C11         -3.1310     1.1220     0.3730 c          1 8L0       0.651100
     16 O2          -2.5230     1.6170     1.3030 o          1 8L0      -0.570100
     17 N3          -4.1260     1.7350    -0.2920 ns         1 8L0      -0.439400
     18 O3          -4.3900     3.0510    -0.0550 oh         1 8L0      -0.384100
     19 CG2          2.6760     1.3700     0.6990 ca         1 8L0      -0.110000
     20 C13          3.7490     1.7980     1.4650 ca         1 8L0      -0.121000
     21 C14          5.0530     1.6430     1.0120 ca         1 8L0      -0.119000
     22 H1           4.3780     0.1430    -1.9580 ha         1 8L0       0.145000
     23 H2           1.3330     1.2070    -1.9360 h1         1 8L0       0.066200
     24 H3           2.1040    -0.3430    -2.1840 h1         1 8L0       0.066200
     25 H4           0.9020    -1.0610    -0.0920 hn         1 8L0       0.310500
     26 H5          -1.1550    -1.0980     0.7700 hn         1 8L0       0.313500
     27 H6          -3.2790    -0.4360    -1.1080 h1         1 8L0       0.076700
     28 H7          -3.3840    -1.0840     1.8660 hc         1 8L0       0.056200
     29 H8          -4.7460    -0.9840     0.7660 hc         1 8L0       0.056200
     30 H9          -2.4980    -3.0390     0.6530 hc         1 8L0       0.046700
     31 H10         -5.4540    -3.3450     1.3450 hc         1 8L0       0.035867
     32 H11         -4.2520    -4.6340     1.3140 hc         1 8L0       0.035867
     33 H12         -4.1330    -3.3480     2.5130 hc         1 8L0       0.035867
     34 H13         -4.9440    -2.7400    -1.1520 hc         1 8L0       0.035867
     35 H14         -3.2610    -2.5790    -1.6570 hc         1 8L0       0.035867
     36 H15         -3.8710    -4.1380    -1.1240 hc         1 8L0       0.035867
     37 H16         -4.4400     1.4030    -1.1930 hn         1 8L0       0.335500
     38 H17         -5.1690     3.0680     0.5150 ho         1 8L0       0.404000
     39 H18          1.6670     1.4960     1.0700 ha         1 8L0       0.148000
     40 H19          3.5740     2.2600     2.4280 ha         1 8L0       0.138000
     41 H20          5.8900     1.9720     1.6110 ha         1 8L0       0.148000
@<TRIPOS>BOND
     1     1     2 1   
     2     2     3 ar  
     3     2    21 ar  
     4     3     4 ar  
     5     3    22 1   
     6     4     5 1   
     7     4    19 ar  
     8     5     6 1   
     9     5    23 1   
    10     5    24 1   
    11     6     7 1   
    12     6    25 1   
    13     7     8 2   
    14     7     9 1   
    15     9    10 1   
    16     9    26 1   
    17    10    11 1   
    18    10    15 1   
    19    10    27 1   
    20    11    12 1   
    21    11    28 1   
    22    11    29 1   
    23    12    13 1   
    24    12    14 1   
    25    12    30 1   
    26    13    31 1   
    27    13    32 1   
    28    13    33 1   
    29    14    34 1   
    30    14    35 1   
    31    14    36 1   
    32    15    16 2   
    33    15    17 1   
    34    17    18 1   
    35    17    37 1   
    36    18    38 1   
    37    19    20 ar  
    38    19    39 1   
    39    20    21 ar  
    40    20    40 1   
    41    21    41 1   
@<TRIPOS>SUBSTRUCTURE
     1 8L0         1 TEMP              0 ****  ****    0 ROOT
