@<TRIPOS>MOLECULE
8L1
   53    55     1     0     0
SMALL
bcc


@<TRIPOS>ATOM
      1 C1           4.9130    -0.2630     0.5720 ca         1 8L1      -0.113300
      2 C2           5.2050    -1.5900     0.9060 ca         1 8L1      -0.110000
      3 C3           6.4660    -2.1100     0.6820 ca         1 8L1      -0.137000
      4 C8           9.6770     0.3890    -0.7560 c3         1 8L1      -0.158400
      5 C4           7.4640    -1.3190     0.1250 ca         1 8L1      -0.104000
      6 C5           7.1970     0.0020    -0.2190 ca         1 8L1      -0.132900
      7 C6           5.9140     0.5130     0.0120 ca         1 8L1      -0.081000
      8 C10          1.2360    -0.6230     0.3620 c          1 8L1       0.798100
      9 C11          3.5190     0.2870     0.8730 c3         1 8L1       0.201700
     10 C12          3.3530     0.3150     2.3990 c3         1 8L1      -0.104600
     11 C13          3.3060     1.6930     0.3100 c3         1 8L1      -0.104600
     12 C17         -0.7510    -1.7930    -0.5670 ca         1 8L1       0.097600
     13 C18         -1.7490    -0.9300    -0.1170 ca         1 8L1      -0.138000
     14 C19         -3.0980    -1.2210    -0.3220 ca         1 8L1      -0.101500
     15 C20         -3.4570    -2.3920    -0.9860 ca         1 8L1       0.030400
     16 C21         -2.4700    -3.2530    -1.4410 ca         1 8L1      -0.095000
     17 C22         -1.1370    -2.9590    -1.2360 ca         1 8L1      -0.175000
     18 C24         -4.0920    -0.2690     0.1810 cc         1 8L1       0.479900
     19 C26         -5.3620     1.2990     1.5250 cc         1 8L1      -0.162400
     20 C27         -5.8150     1.0700     0.2650 cd         1 8L1       0.227600
     21 C29         -7.0130     1.7060    -0.3510 c3         1 8L1       0.659600
     22 F1          -6.6900     2.4030    -1.4460 f          1 8L1      -0.227633
     23 F2          -7.9150     0.7930    -0.7280 f          1 8L1      -0.227633
     24 F3          -7.6140     2.5420     0.4970 f          1 8L1      -0.227633
     25 N1           7.8480     1.9090    -1.4040 n2         1 8L1      -0.443200
     26 N3           2.5850    -0.6600     0.2480 ns         1 8L1      -0.585900
     27 N4           0.6100    -1.5610    -0.4330 ns         1 8L1      -0.493100
     28 N5          -5.1020     0.1910    -0.4830 nd         1 8L1      -0.582000
     29 O1           8.8380     2.6560    -1.9650 oh         1 8L1      -0.370500
     30 O2           0.6200     0.1360     1.0940 o          1 8L1      -0.624100
     31 S           -3.9690     0.3560     1.7930 ss         1 8L1      -0.092300
     32 CL          -5.1110    -2.8390    -1.2120 cl         1 8L1      -0.078400
     33 H1           4.4430    -2.2200     1.3470 ha         1 8L1       0.138000
     34 H2           6.6800    -3.1370     0.9440 ha         1 8L1       0.135000
     35 H3           9.8550    -0.4350    -1.4500 hc         1 8L1       0.057033
     36 H4          10.3780     1.1820    -1.0000 hc         1 8L1       0.057033
     37 H5           9.9100     0.0240     0.2440 hc         1 8L1       0.057033
     38 H6           8.4420    -1.7480    -0.0450 ha         1 8L1       0.136000
     39 H7           5.7220     1.5410    -0.2570 ha         1 8L1       0.153000
     40 H8           2.3990     0.7470     2.6890 hc         1 8L1       0.051533
     41 H9           3.4200    -0.6870     2.8210 hc         1 8L1       0.051533
     42 H10          4.1470     0.9200     2.8360 hc         1 8L1       0.051533
     43 H11          3.4570     1.7220    -0.7700 hc         1 8L1       0.051533
     44 H12          2.2910     2.0270     0.5180 hc         1 8L1       0.051533
     45 H13          3.9830     2.4110     0.7710 hc         1 8L1       0.051533
     46 H14         -1.4850    -0.0080     0.3750 ha         1 8L1       0.175000
     47 H15         -2.7420    -4.1660    -1.9520 ha         1 8L1       0.150000
     48 H16         -0.3850    -3.6480    -1.6000 ha         1 8L1       0.133000
     49 H17         -5.7610     1.9490     2.2870 h4         1 8L1       0.195000
     50 H18          2.9680    -1.1950    -0.5160 hn         1 8L1       0.308500
     51 H19          1.1980    -2.2270    -0.9110 hn         1 8L1       0.314500
     52 H20          8.3750     3.4140    -2.3370 ho         1 8L1       0.431000
     53 C7           8.2510     0.8430    -0.8330 ce         1 8L1       0.428900
@<TRIPOS>BOND
     1     1     2 ar  
     2     1     7 ar  
     3     1     9 1   
     4     2     3 ar  
     5     2    33 1   
     6     3     5 ar  
     7     3    34 1   
     8     4    35 1   
     9     4    36 1   
    10     4    37 1   
    11     4    53 1   
    12     5     6 ar  
    13     5    38 1   
    14     6     7 ar  
    15     6    53 1   
    16     7    39 1   
    17     8    26 1   
    18     8    27 1   
    19     8    30 2   
    20     9    10 1   
    21     9    11 1   
    22     9    26 1   
    23    10    40 1   
    24    10    41 1   
    25    10    42 1   
    26    11    43 1   
    27    11    44 1   
    28    11    45 1   
    29    12    13 ar  
    30    12    17 ar  
    31    12    27 1   
    32    13    14 ar  
    33    13    46 1   
    34    14    15 ar  
    35    14    18 1   
    36    15    16 ar  
    37    15    32 1   
    38    16    17 ar  
    39    16    47 1   
    40    17    48 1   
    41    18    28 2   
    42    18    31 1   
    43    19    20 2   
    44    19    31 1   
    45    19    49 1   
    46    20    21 1   
    47    20    28 1   
    48    21    22 1   
    49    21    23 1   
    50    21    24 1   
    51    25    29 1   
    52    25    53 2   
    53    26    50 1   
    54    27    51 1   
    55    29    52 1   
@<TRIPOS>SUBSTRUCTURE
     1 8L1         1 TEMP              0 ****  ****    0 ROOT
