@<TRIPOS>MOLECULE
8L1
   53    55     1     0     0
SMALL
No Charge or Current Charge


@<TRIPOS>ATOM
      1 C1           4.9980    -0.2450     0.6650 ca         1 8L1      -0.113300
      2 C2           5.2550    -1.6000     0.9780 ca         1 8L1      -0.092000
      3 C3           6.4810    -2.1960     0.6500 ca         1 8L1      -0.119000
      4 C8           9.7830     0.4480    -0.6520 c3         1 8L1      -0.158400
      5 C4           7.4810    -1.4520     0.0100 ca         1 8L1      -0.086000
      6 C5           7.2710    -0.0920    -0.2980 ca         1 8L1      -0.132900
      7 C6           6.0190     0.4930     0.0120 ca         1 8L1      -0.063000
      8 C10          1.2430    -0.3970     0.4750 c          1 8L1       0.664100
      9 C11          3.6200     0.3590     1.0350 c3         1 8L1       0.201700
     10 C12          3.4520     0.2910     2.5760 c3         1 8L1      -0.104600
     11 C13          3.4560     1.8320     0.5720 c3         1 8L1      -0.104600
     12 C17         -0.7610    -1.6360    -0.5440 ca         1 8L1       0.005000
     13 C18         -1.8220    -0.8460    -0.0490 ca         1 8L1      -0.120000
     14 C19         -3.1710    -1.1860    -0.3080 ca         1 8L1      -0.101500
     15 C20         -3.4480    -2.3340    -1.0890 ca         1 8L1       0.122000
     16 C21         -2.3940    -3.1170    -1.5850 ca         1 8L1      -0.077000
     17 C22         -1.0610    -2.7690    -1.3170 ca         1 8L1      -0.157000
     18 C24         -4.2350    -0.3110     0.2000 cc         1 8L1       0.479900
     19 C26         -5.6640     1.1390     1.5080 cc         1 8L1      -0.224000
     20 C27         -6.0790     0.9530     0.2060 cd         1 8L1       0.162300
     21 C29         -7.3230     1.5710    -0.4220 c3         1 8L1       0.295700
     22 F1          -7.0130     2.3820    -1.4600 f          1 8L1      -0.106333
     23 F2          -8.1710     0.6280    -0.8950 f          1 8L1      -0.106333
     24 F3          -8.0260     2.3190     0.4610 f          1 8L1      -0.106333
     25 N1           7.9470     1.6420    -1.8460 n2         1 8L1      -0.344700
     26 N3           2.6150    -0.4700     0.3570 ns         1 8L1      -0.518900
     27 N4           0.6110    -1.3420    -0.3180 ns         1 8L1      -0.167000
     28 N5          -5.2470     0.1240    -0.5430 nd         1 8L1      -0.582000
     29 O1           8.9420     2.1830    -2.6910 oh         1 8L1      -0.508000
     30 O2           0.6670     0.4020     1.1970 o          1 8L1      -0.624100
     31 S           -4.1950     0.2710     1.8460 ss         1 8L1       0.052600
     32 Cl          -5.0960    -2.8750    -1.4210 cl         1 8L1      -0.170000
     33 H1           4.4970    -2.2040     1.4700 ha         1 8L1       0.120000
     34 H2           6.6540    -3.2440     0.8870 ha         1 8L1       0.117000
     35 H3          10.3220    -0.0440    -1.4690 hc         1 8L1       0.057033
     36 H4          10.2960     1.3910    -0.4300 hc         1 8L1       0.057033
     37 H5           9.8810    -0.1790     0.2410 hc         1 8L1       0.057033
     38 H6           8.4140    -1.9430    -0.2550 ha         1 8L1       0.118000
     39 H7           5.8640     1.5350    -0.2520 ha         1 8L1       0.135000
     40 H8           2.5500     0.8150     2.9110 hc         1 8L1       0.051533
     41 H9           3.3870    -0.7450     2.9280 hc         1 8L1       0.051533
     42 H10          4.3080     0.7630     3.0730 hc         1 8L1       0.051533
     43 H11          3.5470     1.9140    -0.5180 hc         1 8L1       0.051533
     44 H12          2.4780     2.2360     0.8540 hc         1 8L1       0.051533
     45 H13          4.2130     2.4750     1.0370 hc         1 8L1       0.051533
     46 H14         -1.6140     0.0520     0.5250 ha         1 8L1       0.157000
     47 H15         -2.6130    -4.0030    -2.1760 ha         1 8L1       0.132000
     48 H16         -0.2580    -3.3900    -1.7110 ha         1 8L1       0.115000
     49 H17         -6.1250     1.7320     2.2880 h4         1 8L1       0.177000
     50 H18          2.9670    -1.1710    -0.2800 hn         1 8L1       0.308500
     51 H19          1.2420    -1.9370    -0.8370 hn         1 8L1       0.148000
     52 H20          8.4810     2.8720    -3.2280 ho         1 8L1       0.470000
     53 C7           8.3250     0.6930    -1.0290 ce         1 8L1       0.428900
@<TRIPOS>BOND
     1     1     2 ar  
     2     1     7 ar  
     3     1     9 1   
     4     2     3 ar  
     5     2    33 1   
     6     3     5 ar  
     7     3    34 1   
     8     4    35 1   
     9     4    36 1   
    10     4    37 1   
    11     4    53 1   
    12     5     6 ar  
    13     5    38 1   
    14     6     7 ar  
    15     6    53 1   
    16     7    39 1   
    17     8    26 1   
    18     8    27 1   
    19     8    30 2   
    20     9    10 1   
    21     9    11 1   
    22     9    26 1   
    23    10    40 1   
    24    10    41 1   
    25    10    42 1   
    26    11    43 1   
    27    11    44 1   
    28    11    45 1   
    29    12    13 ar  
    30    12    17 ar  
    31    12    27 1   
    32    13    14 ar  
    33    13    46 1   
    34    14    15 ar  
    35    14    18 1   
    36    15    16 ar  
    37    15    32 1   
    38    16    17 ar  
    39    16    47 1   
    40    17    48 1   
    41    18    28 2   
    42    18    31 1   
    43    19    20 2   
    44    19    31 1   
    45    19    49 1   
    46    20    21 1   
    47    20    28 1   
    48    21    22 1   
    49    21    23 1   
    50    21    24 1   
    51    25    29 1   
    52    25    53 2   
    53    26    50 1   
    54    27    51 1   
    55    29    52 1   
@<TRIPOS>SUBSTRUCTURE
     1 8L1         1 TEMP              0 ****  ****    0 ROOT
