@<TRIPOS>MOLECULE
8L2
   57    57     1     0     0
SMALL
abcg2


@<TRIPOS>ATOM
      1 C3           0.5610     0.2800     1.1900 c3         1 8L2      -0.253000
      2 C8           4.6450     0.8480    -1.2620 c3         1 8L2       0.230900
      3 C9           6.0880     0.6760    -0.8960 ca         1 8L2      -0.075300
      4 C10          6.9080     1.7810    -0.6970 ca         1 8L2      -0.086500
      5 C11          8.2390     1.6190    -0.3310 ca         1 8L2      -0.124500
      6 C12          8.7590     0.3440    -0.1570 ca         1 8L2      -0.119000
      7 C13          7.9470    -0.7660    -0.3530 ca         1 8L2      -0.124500
      8 C14          6.6200    -0.6000    -0.7210 ca         1 8L2      -0.086500
      9 C16         -2.3260    -1.4020     0.2190 c3         1 8L2       0.173500
     10 C19         -3.1670    -1.9900    -2.6910 c3         1 8L2      -0.074600
     11 C20         -4.2930    -4.0630    -1.8460 c3         1 8L2      -0.074600
     12 C21         -3.4780    -0.4770     0.5980 c          1 8L2       0.602100
     13 N23         -3.5060     0.7000    -0.0390 ns         1 8L2      -0.461900
     14 C24         -4.5520     1.6820     0.1100 c3         1 8L2      -0.040300
     15 P2           0.2220    -1.5350     1.2720 p5         1 8L2       1.370300
     16 O1           0.7490    -2.0590     2.5870 o          1 8L2      -0.835000
     17 N4           1.9760     0.5380     1.0310 ns         1 8L2      -0.443900
     18 C5           2.5510     0.6920    -0.1740 c          1 8L2       0.631100
     19 O6           1.9700     0.9040    -1.2190 o          1 8L2      -0.551000
     20 O7           3.8880     0.6280    -0.0690 os         1 8L2      -0.476100
     21 N15         -1.4750    -1.5280     1.3830 n7         1 8L2      -0.988500
     22 C17         -2.8460    -2.7440    -0.2910 c3         1 8L2      -0.085400
     23 C18         -3.8050    -2.6640    -1.4810 c3         1 8L2      -0.066700
     24 O27          0.6930    -2.1360    -0.0290 o          1 8L2      -0.835000
     25 C28         -5.6840     1.5130    -0.9380 c          1 8L2       0.711000
     26 O29         -6.5800     2.3800    -0.8880 o          1 8L2      -0.736500
     27 O30         -5.6120     0.5480    -1.7160 o          1 8L2      -0.736500
     28 C25         -3.9470     3.0820     0.0640 c3         1 8L2       0.148800
     29 H1           0.0230     0.7380     0.3590 h1         1 8L2       0.063200
     30 H2           0.2120     0.7710     2.1010 h1         1 8L2       0.063200
     31 H3           4.4620     1.8520    -1.6490 h1         1 8L2       0.049700
     32 H4           4.3530     0.1310    -2.0320 h1         1 8L2       0.049700
     33 H5           6.5060     2.7790    -0.8320 ha         1 8L2       0.121000
     34 H6           8.8660     2.4880    -0.1820 ha         1 8L2       0.102000
     35 H7           9.7960     0.2150     0.1270 ha         1 8L2       0.096000
     36 H8           8.3490    -1.7620    -0.2210 ha         1 8L2       0.102000
     37 H9           5.9930    -1.4700    -0.8780 ha         1 8L2       0.121000
     38 H10         -1.7300    -0.9390    -0.5720 h1         1 8L2       0.056700
     39 H11         -3.8500    -1.9900    -3.5420 hc         1 8L2       0.019867
     40 H12         -2.9110    -0.9500    -2.4940 hc         1 8L2       0.019867
     41 H13         -2.2550    -2.5110    -2.9920 hc         1 8L2       0.019867
     42 H14         -4.7620    -4.5600    -0.9950 hc         1 8L2       0.019867
     43 H15         -5.0250    -4.0290    -2.6550 hc         1 8L2       0.019867
     44 H16         -3.4620    -4.6910    -2.1780 hc         1 8L2       0.019867
     45 H17         -2.9010     0.8030    -0.8380 hn         1 8L2       0.292500
     46 H18         -4.9870     1.5420     1.1030 h1         1 8L2       0.078700
     47 H19         -2.1910     2.6410     0.9800 hn         1 8L2       0.375500
     48 H20         -2.5930     4.1990     1.0790 hn         1 8L2       0.375500
     49 H23          2.5720     0.2640     1.7960 hn         1 8L2       0.312500
     50 H24         -1.8780    -2.0710     2.1330 hn         1 8L2       0.456000
     51 H25         -1.9750    -3.3490    -0.5620 hc         1 8L2       0.041200
     52 H26         -3.3430    -3.2600     0.5370 hc         1 8L2       0.041200
     53 H27         -4.6740    -2.0640    -1.1900 hc         1 8L2       0.090700
     54 H29         -3.5350     3.2600    -0.9420 h1         1 8L2       0.026700
     55 H30         -4.7540     3.8010     0.1990 h1         1 8L2       0.026700
     56 N26         -2.9750     3.2640     1.1320 n8         1 8L2      -1.000200
     57 O22         -4.2740    -0.7990     1.4730 o          1 8L2      -0.653100
@<TRIPOS>BOND
     1     1    15 1   
     2     1    17 1   
     3     1    29 1   
     4     1    30 1   
     5     2     3 1   
     6     2    20 1   
     7     2    31 1   
     8     2    32 1   
     9     3     4 ar  
    10     3     8 ar  
    11     4     5 ar  
    12     4    33 1   
    13     5     6 ar  
    14     5    34 1   
    15     6     7 ar  
    16     6    35 1   
    17     7     8 ar  
    18     7    36 1   
    19     8    37 1   
    20     9    12 1   
    21     9    21 1   
    22     9    22 1   
    23     9    38 1   
    24    10    23 1   
    25    10    39 1   
    26    10    40 1   
    27    10    41 1   
    28    11    23 1   
    29    11    42 1   
    30    11    43 1   
    31    11    44 1   
    32    12    13 1   
    33    12    57 2   
    34    13    14 1   
    35    13    45 1   
    36    14    25 1   
    37    14    28 1   
    38    14    46 1   
    39    15    16 1   
    40    15    21 1   
    41    15    24 1   
    42    17    18 1   
    43    17    49 1   
    44    18    19 2   
    45    18    20 1   
    46    21    50 1   
    47    22    23 1   
    48    22    51 1   
    49    22    52 1   
    50    23    53 1   
    51    25    26 1   
    52    25    27 1   
    53    28    54 1   
    54    28    55 1   
    55    28    56 1   
    56    47    56 1   
    57    48    56 1   
@<TRIPOS>SUBSTRUCTURE
     1 8L2         1 TEMP              0 ****  ****    0 ROOT
