@<TRIPOS>MOLECULE
8L2
   57    57     1     0     0
SMALL
No Charge or Current Charge


@<TRIPOS>ATOM
      1 C3           0.7540    -0.0140     0.0320 c3         1 8L2      -0.253000
      2 C8           5.4250    -0.9600    -1.1620 c3         1 8L2       0.230900
      3 C9           6.7460    -0.2600    -0.8670 ca         1 8L2      -0.075300
      4 C10          7.2390     0.7270    -1.7440 ca         1 8L2      -0.086500
      5 C11          8.4590     1.3710    -1.4720 ca         1 8L2      -0.124500
      6 C12          9.1920     1.0340    -0.3220 ca         1 8L2      -0.119000
      7 C13          8.7050     0.0530     0.5570 ca         1 8L2      -0.124500
      8 C14          7.4850    -0.5920     0.2870 ca         1 8L2      -0.086500
      9 C16         -2.4050    -0.7230     0.2550 c3         1 8L2       0.173500
     10 C19         -3.2260    -1.2610    -2.7570 c3         1 8L2      -0.074600
     11 C20         -3.6270    -3.6880    -2.1070 c3         1 8L2      -0.074600
     12 C21         -3.8260    -0.1830     0.6750 c          1 8L2       0.602100
     13 N23         -4.2000     1.0090     0.0810 ns         1 8L2      -0.461900
     14 C24         -5.4850     1.7280     0.3090 c3         1 8L2      -0.040300
     15 P2           0.1410    -1.1340     1.3830 p5         1 8L2       1.370300
     16 O1           0.6760    -0.8210     2.7360 o          1 8L2      -0.835000
     17 N4           2.2280     0.1770    -0.0680 ns         1 8L2      -0.443900
     18 C5           3.0940    -0.6760    -0.7050 c          1 8L2       0.631100
     19 O6           2.7720    -1.6780    -1.3240 o          1 8L2      -0.551000
     20 O7           4.3630    -0.2080    -0.5520 os         1 8L2      -0.476100
     21 N15         -1.4450    -0.7240     1.4070 n7         1 8L2      -0.988500
     22 C17         -2.5140    -2.1210    -0.4250 c3         1 8L2      -0.085400
     23 C18         -3.5390    -2.2330    -1.5920 c3         1 8L2      -0.066700
     24 O27          0.2320    -2.5790     1.0450 o          1 8L2      -0.835000
     25 C28         -6.1090     2.1620    -1.0470 c          1 8L2       0.711000
     26 O29         -7.2240     1.7460    -1.3290 o          1 8L2      -0.736500
     27 O30         -5.4340     2.8370    -1.8130 o          1 8L2      -0.736500
     28 C25         -5.3200     2.9590     1.2320 c3         1 8L2       0.148800
     29 H1           0.3750    -0.4240    -0.9110 h1         1 8L2       0.063200
     30 H2           0.2820     0.9600     0.2030 h1         1 8L2       0.063200
     31 H3           5.2810    -1.0260    -2.2490 h1         1 8L2       0.049700
     32 H4           5.4560    -1.9830    -0.7630 h1         1 8L2       0.049700
     33 H5           6.6760     0.9950    -2.6350 ha         1 8L2       0.121000
     34 H6           8.8350     2.1320    -2.1530 ha         1 8L2       0.102000
     35 H7          10.1360     1.5320    -0.1120 ha         1 8L2       0.096000
     36 H8           9.2710    -0.2080     1.4490 ha         1 8L2       0.102000
     37 H9           7.1120    -1.3490     0.9740 ha         1 8L2       0.121000
     38 H10         -2.0290    -0.0240    -0.5040 h1         1 8L2       0.056700
     39 H11         -3.9450    -1.3950    -3.5740 hc         1 8L2       0.019867
     40 H12         -3.2880    -0.2170    -2.4330 hc         1 8L2       0.019867
     41 H13         -2.2200    -1.4400    -3.1540 hc         1 8L2       0.019867
     42 H14         -3.9020    -4.3710    -1.2950 hc         1 8L2       0.019867
     43 H15         -4.3860    -3.7770    -2.8930 hc         1 8L2       0.019867
     44 H16         -2.6650    -4.0160    -2.5200 hc         1 8L2       0.019867
     45 H17         -3.5410     1.4210    -0.5690 hn         1 8L2       0.292500
     46 H18         -6.2000     1.0410     0.7770 h1         1 8L2       0.078700
     47 H19         -4.0020     2.0590     2.5150 hn         1 8L2       0.375500
     48 H20         -4.5960     3.4490     3.0950 hn         1 8L2       0.375500
     49 H23          2.6630     0.9600     0.4070 hn         1 8L2       0.312500
     50 H24         -1.7480    -1.4290     2.0740 hn         1 8L2       0.456000
     51 H25         -1.5330    -2.4050    -0.8220 hc         1 8L2       0.041200
     52 H26         -2.7720    -2.8630     0.3410 hc         1 8L2       0.041200
     53 H27         -4.5350    -1.9780    -1.2080 hc         1 8L2       0.090700
     54 H29         -4.5800     3.6430     0.7940 h1         1 8L2       0.026700
     55 H30         -6.2760     3.4940     1.3120 h1         1 8L2       0.026700
     56 N26         -4.8720     2.5960     2.5930 n8         1 8L2      -1.000200
     57 O22         -4.5540    -0.7710     1.4710 o          1 8L2      -0.653100
@<TRIPOS>BOND
     1     1    15 1   
     2     1    17 1   
     3     1    29 1   
     4     1    30 1   
     5     2     3 1   
     6     2    20 1   
     7     2    31 1   
     8     2    32 1   
     9     3     4 ar  
    10     3     8 ar  
    11     4     5 ar  
    12     4    33 1   
    13     5     6 ar  
    14     5    34 1   
    15     6     7 ar  
    16     6    35 1   
    17     7     8 ar  
    18     7    36 1   
    19     8    37 1   
    20     9    12 1   
    21     9    21 1   
    22     9    22 1   
    23     9    38 1   
    24    10    23 1   
    25    10    39 1   
    26    10    40 1   
    27    10    41 1   
    28    11    23 1   
    29    11    42 1   
    30    11    43 1   
    31    11    44 1   
    32    12    13 1   
    33    12    57 2   
    34    13    14 1   
    35    13    45 1   
    36    14    25 1   
    37    14    28 1   
    38    14    46 1   
    39    15    16 1   
    40    15    21 1   
    41    15    24 1   
    42    17    18 1   
    43    17    49 1   
    44    18    19 2   
    45    18    20 1   
    46    21    50 1   
    47    22    23 1   
    48    22    51 1   
    49    22    52 1   
    50    23    53 1   
    51    25    26 1   
    52    25    27 1   
    53    28    54 1   
    54    28    55 1   
    55    28    56 1   
    56    47    56 1   
    57    48    56 1   
@<TRIPOS>SUBSTRUCTURE
     1 8L2         1 TEMP              0 ****  ****    0 ROOT
