@<TRIPOS>MOLECULE
8L3
   43    45     1     0     0
SMALL
bcc


@<TRIPOS>ATOM
      1 CAA         -3.5960     1.4620     1.2670 c6         1 8L3       0.147300
      2 CAC         -4.9130     0.4800    -0.4890 c6         1 8L3       0.147300
      3 CAD         -3.9580    -0.7060    -0.5910 c6         1 8L3      -0.110400
      4 CAE         -2.5200    -0.3560    -0.1630 c6         1 8L3      -0.035000
      5 CAF         -1.7610    -1.6770    -0.0730 c3         1 8L3       0.145400
      6 CAH          0.4240    -2.4250     0.5050 ca         1 8L3       0.027800
      7 CAI          1.7140    -2.0800     0.9030 ca         1 8L3      -0.129000
      8 CAJ          2.7000    -3.0460     0.8750 ca         1 8L3      -0.209300
      9 CAK          2.3730    -4.3270     0.4450 ca         1 8L3       0.362200
     10 CAM          0.1950    -3.7370     0.0890 ca         1 8L3       0.315200
     11 CAN         -1.9000     0.5640    -1.2470 c3         1 8L3      -0.025100
     12 CAO         -0.4200     0.7950    -1.1470 ca         1 8L3      -0.052300
     13 CAP          0.4710     0.0250    -1.8910 ca         1 8L3      -0.115000
     14 CAQ          1.8380     0.1840    -1.7630 ca         1 8L3      -0.110000
     15 CAR          2.3460     1.1360    -0.8920 ca         1 8L3       0.020400
     16 CAT          1.4700     1.9380    -0.1710 ca         1 8L3       0.027400
     17 CAV          0.1000     1.7720    -0.3050 ca         1 8L3      -0.108000
     18 CAW         -2.5830     0.3190     1.2160 c6         1 8L3      -0.110400
     19 NAB         -4.9330     1.0980     0.8260 n7         1 8L3      -0.786200
     20 NAL          1.1510    -4.6600     0.0620 nb         1 8L3      -0.640000
     21 OAG         -0.5100    -1.4670     0.5560 os         1 8L3      -0.313900
     22 CLS          4.0520     1.3080    -0.7150 cl         1 8L3      -0.084400
     23 CLU          2.0710     3.1500     0.8990 cl         1 8L3      -0.085400
     24 H1          -3.6570     1.8450     2.2870 h1         1 8L3       0.054200
     25 H2          -3.2500     2.3010     0.6530 h1         1 8L3       0.054200
     26 H3          -4.6580     1.2460    -1.2290 h1         1 8L3       0.054200
     27 H4          -5.9250     0.1510    -0.7350 h1         1 8L3       0.054200
     28 H5          -4.3360    -1.5040     0.0580 hc         1 8L3       0.051200
     29 H6          -3.9610    -1.1050    -1.6100 hc         1 8L3       0.051200
     30 H7          -2.3510    -2.3990     0.5050 h1         1 8L3       0.037200
     31 H8          -1.6210    -2.0980    -1.0770 h1         1 8L3       0.037200
     32 H9           1.9290    -1.0670     1.2210 ha         1 8L3       0.154000
     33 H10          3.7120    -2.8110     1.1740 ha         1 8L3       0.145000
     34 H11          3.1270    -5.1060     0.4110 h4         1 8L3       0.021100
     35 H12         -0.7890    -4.0610    -0.2300 h4         1 8L3       0.018100
     36 H13         -2.1190     0.1230    -2.2230 hc         1 8L3       0.053200
     37 H14         -2.4150     1.5270    -1.2340 hc         1 8L3       0.053200
     38 H15          0.0920    -0.7270    -2.5730 ha         1 8L3       0.135000
     39 H16          2.5170    -0.4340    -2.3350 ha         1 8L3       0.151000
     40 H17         -0.5640     2.4140     0.2590 ha         1 8L3       0.148000
     41 H18         -1.6010     0.6880     1.5200 hc         1 8L3       0.051200
     42 H19         -2.8670    -0.4340     1.9600 hc         1 8L3       0.051200
     43 H20         -5.3220     0.4340     1.4870 hn         1 8L3       0.347800
@<TRIPOS>BOND
     1     1    18 1   
     2     1    19 1   
     3     1    24 1   
     4     1    25 1   
     5     2     3 1   
     6     2    19 1   
     7     2    26 1   
     8     2    27 1   
     9     3     4 1   
    10     3    28 1   
    11     3    29 1   
    12     4     5 1   
    13     4    11 1   
    14     4    18 1   
    15     5    21 1   
    16     5    30 1   
    17     5    31 1   
    18     6     7 ar  
    19     6    10 ar  
    20     6    21 1   
    21     7     8 ar  
    22     7    32 1   
    23     8     9 ar  
    24     8    33 1   
    25     9    20 ar  
    26     9    34 1   
    27    10    20 ar  
    28    10    35 1   
    29    11    12 1   
    30    11    36 1   
    31    11    37 1   
    32    12    13 ar  
    33    12    17 ar  
    34    13    14 ar  
    35    13    38 1   
    36    14    15 ar  
    37    14    39 1   
    38    15    16 ar  
    39    15    22 1   
    40    16    17 ar  
    41    16    23 1   
    42    17    40 1   
    43    18    41 1   
    44    18    42 1   
    45    19    43 1   
@<TRIPOS>SUBSTRUCTURE
     1 8L3         1 TEMP              0 ****  ****    0 ROOT
