@<TRIPOS>MOLECULE
8L3
   43    45     1     0     0
SMALL
No Charge or Current Charge


@<TRIPOS>ATOM
      1 CAA         -3.5150     1.5190     1.2910 c6         1 8L3       0.147300
      2 CAC         -4.9720     0.5410    -0.4450 c6         1 8L3       0.147300
      3 CAD         -4.0450    -0.6960    -0.5600 c6         1 8L3      -0.110400
      4 CAE         -2.5550    -0.3800    -0.1960 c6         1 8L3      -0.035000
      5 CAF         -1.7640    -1.7370    -0.1500 c3         1 8L3       0.168600
      6 CAH          0.4750    -2.5540     0.4900 ca         1 8L3       0.093100
      7 CAI          1.7550    -2.2460     0.9780 ca         1 8L3      -0.111000
      8 CAJ          2.7230    -3.2660     1.0100 ca         1 8L3      -0.126000
      9 CAK          2.3810    -4.5540     0.5580 ca         1 8L3       0.296900
     10 CAM          0.2190    -3.8800     0.0530 ca         1 8L3       0.249900
     11 CAN         -1.9220     0.5420    -1.3170 c3         1 8L3      -0.025100
     12 CAO         -0.4300     0.8520    -1.1910 ca         1 8L3      -0.052300
     13 CAP          0.5150     0.0930    -1.9120 ca         1 8L3      -0.097000
     14 CAQ          1.8890     0.3570    -1.7820 ca         1 8L3      -0.092000
     15 CAR          2.3320     1.3900    -0.9400 ca         1 8L3       0.112000
     16 CAT          1.3920     2.1690    -0.2340 ca         1 8L3       0.119000
     17 CAV          0.0190     1.9020    -0.3660 ca         1 8L3      -0.090000
     18 CAW         -2.5610     0.3000     1.2150 c6         1 8L3      -0.110400
     19 NAB         -4.8950     1.1350     0.9110 n7         1 8L3      -0.841400
     20 NAL          1.1510    -4.8660     0.0850 nb         1 8L3      -0.640000
     21 OAG         -0.4680    -1.5470     0.4490 os         1 8L3      -0.337100
     22 ClS          4.0640     1.6900    -0.7900 cl         1 8L3      -0.176000
     23 ClU          1.9100     3.4800     0.8260 cl         1 8L3      -0.177000
     24 H1          -3.5150     1.9200     2.3160 h1         1 8L3       0.054200
     25 H2          -3.1570     2.3220     0.6290 h1         1 8L3       0.054200
     26 H3          -4.6970     1.2950    -1.1980 h1         1 8L3       0.054200
     27 H4          -6.0100     0.2400    -0.6550 h1         1 8L3       0.054200
     28 H5          -4.4310    -1.4820     0.1030 hc         1 8L3       0.051200
     29 H6          -4.1100    -1.1060    -1.5780 hc         1 8L3       0.051200
     30 H7          -2.3360    -2.4670     0.4370 h1         1 8L3       0.037200
     31 H8          -1.6670    -2.1260    -1.1720 h1         1 8L3       0.037200
     32 H9           1.9910    -1.2400     1.3170 ha         1 8L3       0.136000
     33 H10          3.7260    -3.0680     1.3790 ha         1 8L3       0.127000
     34 H11          3.1140    -5.3600     0.5740 h4         1 8L3       0.021100
     35 H12         -0.7570    -4.1710    -0.3330 h4         1 8L3       0.018100
     36 H13         -2.0950     0.0750    -2.2950 hc         1 8L3       0.053200
     37 H14         -2.4610     1.4930    -1.3760 hc         1 8L3       0.053200
     38 H15          0.1850    -0.7160    -2.5600 ha         1 8L3       0.117000
     39 H16          2.6120    -0.2430    -2.3310 ha         1 8L3       0.133000
     40 H17         -0.6950     2.5100     0.1820 ha         1 8L3       0.130000
     41 H18         -1.5490     0.6120     1.5040 hc         1 8L3       0.051200
     42 H19         -2.8680    -0.4340     1.9730 hc         1 8L3       0.051200
     43 H20         -5.2270     0.4340     1.5850 hn         1 8L3       0.403000
@<TRIPOS>BOND
     1     1    18 1   
     2     1    19 1   
     3     1    24 1   
     4     1    25 1   
     5     2     3 1   
     6     2    19 1   
     7     2    26 1   
     8     2    27 1   
     9     3     4 1   
    10     3    28 1   
    11     3    29 1   
    12     4     5 1   
    13     4    11 1   
    14     4    18 1   
    15     5    21 1   
    16     5    30 1   
    17     5    31 1   
    18     6     7 ar  
    19     6    10 ar  
    20     6    21 1   
    21     7     8 ar  
    22     7    32 1   
    23     8     9 ar  
    24     8    33 1   
    25     9    20 ar  
    26     9    34 1   
    27    10    20 ar  
    28    10    35 1   
    29    11    12 1   
    30    11    36 1   
    31    11    37 1   
    32    12    13 ar  
    33    12    17 ar  
    34    13    14 ar  
    35    13    38 1   
    36    14    15 ar  
    37    14    39 1   
    38    15    16 ar  
    39    15    22 1   
    40    16    17 ar  
    41    16    23 1   
    42    17    40 1   
    43    18    41 1   
    44    18    42 1   
    45    19    43 1   
@<TRIPOS>SUBSTRUCTURE
     1 8L3         1 TEMP              0 ****  ****    0 ROOT
