@<TRIPOS>MOLECULE
8L4
   43    44     1     0     0
SMALL
No Charge or Current Charge


@<TRIPOS>ATOM
      1 C7          -4.7030     1.6890    -0.2250 ce         1 8L4       0.627800
      2 C13         -1.3330    -2.1410    -1.9080 c3         1 8L4      -0.104600
      3 C17          3.1230     0.4260     0.2790 ca         1 8L4       0.000000
      4 C18          4.1290    -0.2270    -0.4690 ca         1 8L4      -0.145500
      5 C19          5.4500     0.2600    -0.4600 ca         1 8L4      -0.074500
      6 C20          5.7760     1.3990     0.2920 ca         1 8L4       0.090000
      7 C21          4.7850     2.0540     1.0370 ca         1 8L4      -0.074500
      8 C22          3.4650     1.5690     1.0290 ca         1 8L4      -0.145500
      9 C1          -2.6070    -1.5100     0.1700 ca         1 8L4      -0.103300
     10 C10          1.1050    -1.0650    -0.2760 c          1 8L4       0.662100
     11 C11         -1.2540    -2.0480    -0.3600 c3         1 8L4       0.197700
     12 C12         -0.8910    -3.4450     0.2120 c3         1 8L4      -0.104600
     13 C2          -3.4320    -2.2410     1.0590 ca         1 8L4      -0.084000
     14 C3          -4.6460    -1.7040     1.5140 ca         1 8L4      -0.116000
     15 C4          -5.0670    -0.4360     1.0920 ca         1 8L4      -0.076000
     16 C5          -4.2790     0.3150     0.1940 ca         1 8L4      -0.203900
     17 C6          -3.0450    -0.2270    -0.2400 ca         1 8L4      -0.086000
     18 N1          -6.0790     1.9240    -0.3620 nu         1 8L4      -0.652900
     19 N2          -3.8320     2.6050    -0.4450 n2         1 8L4      -0.778100
     20 N3          -0.2330    -1.0800     0.0610 ns         1 8L4      -0.519900
     21 N4           1.7680    -0.0040     0.3210 ns         1 8L4      -0.167000
     22 O1          -6.5230     3.0090    -1.2570 oh         1 8L4      -0.412300
     23 O2           1.6280    -1.8910    -1.0090 o          1 8L4      -0.619100
     24 Cl           7.4280     2.0040     0.3000 cl         1 8L4      -0.206000
     25 H1          -1.4060    -1.1500    -2.3680 hc         1 8L4       0.051367
     26 H2          -0.4550    -2.6420    -2.3310 hc         1 8L4       0.051367
     27 H3          -2.2140    -2.7200    -2.2090 hc         1 8L4       0.051367
     28 H4           3.9130    -1.1090    -1.0620 ha         1 8L4       0.131000
     29 H5           6.2200    -0.2470    -1.0380 ha         1 8L4       0.129000
     30 H6           5.0380     2.9370     1.6190 ha         1 8L4       0.129000
     31 H7           2.7050     2.0860     1.6110 ha         1 8L4       0.131000
     32 H8           0.0630    -3.8080    -0.1880 hc         1 8L4       0.051367
     33 H9          -0.8000    -3.4110     1.3040 hc         1 8L4       0.051367
     34 H10         -1.6530    -4.1880    -0.0550 hc         1 8L4       0.051367
     35 H11         -3.1530    -3.2280     1.4170 ha         1 8L4       0.121000
     36 H12         -5.2630    -2.2750     2.2050 ha         1 8L4       0.120000
     37 H13         -6.0020    -0.0370     1.4800 ha         1 8L4       0.129000
     38 H14         -2.4230     0.3490    -0.9230 ha         1 8L4       0.129000
     39 H15         -6.6720     1.0920    -0.4350 hn         1 8L4       0.478000
     40 H16         -2.9150     2.2390    -0.1650 hn         1 8L4       0.383400
     41 H17         -0.5380    -0.3490     0.6890 hn         1 8L4       0.303500
     42 H18          1.1780     0.5800     0.8980 hn         1 8L4       0.145000
     43 H19         -6.7810     3.7690    -0.6770 ho         1 8L4       0.457000
@<TRIPOS>BOND
     1     1    16 1   
     2     1    18 1   
     3     1    19 2   
     4     2    11 1   
     5     2    25 1   
     6     2    26 1   
     7     2    27 1   
     8     3     4 ar  
     9     3     8 ar  
    10     3    21 1   
    11     4     5 ar  
    12     4    28 1   
    13     5     6 ar  
    14     5    29 1   
    15     6     7 ar  
    16     6    24 1   
    17     7     8 ar  
    18     7    30 1   
    19     8    31 1   
    20     9    11 1   
    21     9    13 ar  
    22     9    17 ar  
    23    10    20 1   
    24    10    21 1   
    25    10    23 2   
    26    11    12 1   
    27    11    20 1   
    28    12    32 1   
    29    12    33 1   
    30    12    34 1   
    31    13    14 ar  
    32    13    35 1   
    33    14    15 ar  
    34    14    36 1   
    35    15    16 ar  
    36    15    37 1   
    37    16    17 ar  
    38    17    38 1   
    39    18    22 1   
    40    18    39 1   
    41    19    40 1   
    42    20    41 1   
    43    21    42 1   
    44    22    43 1   
@<TRIPOS>SUBSTRUCTURE
     1 8L4         1 TEMP              0 ****  ****    0 ROOT
