@<TRIPOS>MOLECULE
8L4
   43    44     1     0     0
SMALL
bcc


@<TRIPOS>ATOM
      1 C7          -4.6400     1.6810    -0.2390 ce         1 8L4       0.627800
      2 C13         -1.2930    -2.2200    -1.7130 c3         1 8L4      -0.104600
      3 C17          3.0690     0.4860     0.2290 ca         1 8L4       0.092600
      4 C18          3.8900     0.0370    -0.8080 ca         1 8L4      -0.163500
      5 C19          5.2290     0.3970    -0.8460 ca         1 8L4      -0.092500
      6 C20          5.7610     1.2140     0.1360 ca         1 8L4      -0.001600
      7 C21          4.9600     1.6820     1.1650 ca         1 8L4      -0.092500
      8 C22          3.6270     1.3150     1.2080 ca         1 8L4      -0.163500
      9 C1          -2.5980    -1.4620     0.2290 ca         1 8L4      -0.103300
     10 C10          1.0290    -0.8550    -0.2290 c          1 8L4       0.796100
     11 C11         -1.2200    -1.9640    -0.2010 c3         1 8L4       0.197700
     12 C12         -0.8140    -3.2510     0.5200 c3         1 8L4      -0.104600
     13 C2          -3.4960    -2.2570     0.9340 ca         1 8L4      -0.102000
     14 C3          -4.7640    -1.7870     1.2490 ca         1 8L4      -0.134000
     15 C4          -5.1620    -0.5170     0.8670 ca         1 8L4      -0.094000
     16 C5          -4.2730     0.2960     0.1660 ca         1 8L4      -0.203900
     17 C6          -3.0050    -0.1820    -0.1450 ca         1 8L4      -0.104000
     18 N1          -5.9450     1.7790    -0.6620 nu         1 8L4      -0.597700
     19 N2          -3.8800     2.6970    -0.1700 n2         1 8L4      -0.778100
     20 N3          -0.2820    -0.8840     0.1250 ns         1 8L4      -0.586900
     21 N4           1.7120     0.1980     0.3400 ns         1 8L4      -0.493100
     22 O1          -6.2990     2.9580    -1.2720 oh         1 8L4      -0.373300
     23 O2           1.5570    -1.6530    -0.9860 o          1 8L4      -0.619100
     24 CL           7.4370     1.6610     0.0760 cl         1 8L4      -0.114400
     25 H1          -1.4920    -1.2980    -2.2590 hc         1 8L4       0.051367
     26 H2          -0.3740    -2.6570    -2.0940 hc         1 8L4       0.051367
     27 H3          -2.1090    -2.9140    -1.9170 hc         1 8L4       0.051367
     28 H4           3.5000    -0.5860    -1.5960 ha         1 8L4       0.149000
     29 H5           5.8490     0.0370    -1.6550 ha         1 8L4       0.147000
     30 H6           5.3650     2.3220     1.9360 ha         1 8L4       0.147000
     31 H7           3.0100     1.6810     2.0200 ha         1 8L4       0.149000
     32 H8           0.1950    -3.5330     0.2260 hc         1 8L4       0.051367
     33 H9          -0.8330    -3.1250     1.6040 hc         1 8L4       0.051367
     34 H10         -1.4720    -4.0800     0.2580 hc         1 8L4       0.051367
     35 H11         -3.2210    -3.2540     1.2500 ha         1 8L4       0.139000
     36 H12         -5.4440    -2.4180     1.8070 ha         1 8L4       0.138000
     37 H13         -6.1470    -0.1560     1.1310 ha         1 8L4       0.147000
     38 H14         -2.3290     0.4500    -0.7090 ha         1 8L4       0.147000
     39 H15         -6.3010     0.9870    -1.1830 hn         1 8L4       0.422800
     40 H16         -2.9960     2.4400     0.2550 hn         1 8L4       0.383400
     41 H17         -0.5610    -0.3050     0.9020 hn         1 8L4       0.303500
     42 H18          1.2150     0.7610     1.0140 hn         1 8L4       0.311500
     43 H19         -6.8810     3.4030    -0.6450 ho         1 8L4       0.418000
@<TRIPOS>BOND
     1     1    16 1   
     2     1    18 1   
     3     1    19 2   
     4     2    11 1   
     5     2    25 1   
     6     2    26 1   
     7     2    27 1   
     8     3     4 ar  
     9     3     8 ar  
    10     3    21 1   
    11     4     5 ar  
    12     4    28 1   
    13     5     6 ar  
    14     5    29 1   
    15     6     7 ar  
    16     6    24 1   
    17     7     8 ar  
    18     7    30 1   
    19     8    31 1   
    20     9    11 1   
    21     9    13 ar  
    22     9    17 ar  
    23    10    20 1   
    24    10    21 1   
    25    10    23 2   
    26    11    12 1   
    27    11    20 1   
    28    12    32 1   
    29    12    33 1   
    30    12    34 1   
    31    13    14 ar  
    32    13    35 1   
    33    14    15 ar  
    34    14    36 1   
    35    15    16 ar  
    36    15    37 1   
    37    16    17 ar  
    38    17    38 1   
    39    18    22 1   
    40    18    39 1   
    41    19    40 1   
    42    20    41 1   
    43    21    42 1   
    44    22    43 1   
@<TRIPOS>SUBSTRUCTURE
     1 8L4         1 TEMP              0 ****  ****    0 ROOT
