@<TRIPOS>MOLECULE
8L5
   52    52     1     0     0
SMALL
No Charge or Current Charge


@<TRIPOS>ATOM
      1 C10         14.6580    38.3130    -9.3930 c3         1 8L5       0.231900
      2 C11         15.4200    39.2160   -10.3610 ca         1 8L5      -0.110300
      3 C12         14.9370    39.4370   -11.6670 ca         1 8L5      -0.080500
      4 C13         15.6450    40.2660   -12.5550 ca         1 8L5      -0.122500
      5 C14         16.8410    40.8780   -12.1430 ca         1 8L5      -0.111000
      6 C15         17.3290    40.6600   -10.8440 ca         1 8L5      -0.122500
      7 C16         16.6210    39.8320    -9.9560 ca         1 8L5      -0.080500
      8 O01          9.0840    41.8970    -6.1660 o          1 8L5      -0.814000
      9 P01         10.0700    40.8730    -6.6060 p5         1 8L5       1.345300
     10 N01         10.6400    40.0720    -5.2930 n7         1 8L5      -0.984500
     11 C01          9.7090    39.3180    -4.3990 c3         1 8L5       0.171500
     12 C02         10.5600    38.3660    -3.5140 c3         1 8L5      -0.081400
     13 C03          9.7670    37.4440    -2.5430 c3         1 8L5      -0.059700
     14 C04          8.8050    36.4830    -3.2820 c3         1 8L5      -0.086100
     15 C05         10.7300    36.6550    -1.6270 c3         1 8L5      -0.086100
     16 C06          8.7710    40.2340    -3.5290 c          1 8L5       0.623100
     17 O02          7.5770    40.0100    -3.3580 o          1 8L5      -0.630100
     18 O03          9.5200    39.8310    -7.5120 o          1 8L5      -0.814000
     19 C08         11.6800    41.5750    -7.2100 c3         1 8L5      -0.237000
     20 N04         12.8100    40.6190    -7.3870 ns         1 8L5      -0.444900
     21 C09         13.0700    39.9030    -8.5270 c          1 8L5       0.627100
     22 O04         14.1470    39.1000    -8.3010 os         1 8L5      -0.464100
     23 O05         12.4310    39.9760    -9.5660 o          1 8L5      -0.573000
     24 N02          9.3880    41.3330    -2.9810 ns         1 8L5      -0.496900
     25 C07          8.7240    42.3370    -2.2110 c3         1 8L5       0.326200
     26 N03          9.8020    43.0410    -1.5360 n8         1 8L5      -1.029200
     27 H22         13.8480    37.7810    -9.9120 h1         1 8L5       0.056200
     28 H21         15.3510    37.5520    -9.0120 h1         1 8L5       0.056200
     29 H23         14.0100    38.9700   -11.9940 ha         1 8L5       0.119000
     30 H24         15.2670    40.4350   -13.5600 ha         1 8L5       0.105000
     31 H25         17.3890    41.5200   -12.8300 ha         1 8L5       0.101000
     32 H26         18.2550    41.1330   -10.5240 ha         1 8L5       0.105000
     33 H27         17.0030    39.6690    -8.9500 ha         1 8L5       0.119000
     34 H02          9.0420    38.6990    -5.0140 h1         1 8L5       0.066700
     35 H03         11.1790    37.7360    -4.1660 hc         1 8L5       0.035700
     36 H04         11.2570    38.9760    -2.9240 hc         1 8L5       0.035700
     37 H05          9.1590    38.0780    -1.8860 hc         1 8L5       0.058700
     38 H06          8.2940    35.8250    -2.5680 hc         1 8L5       0.028200
     39 H08          8.0340    37.0350    -3.8300 hc         1 8L5       0.028200
     40 H07          9.3530    35.8530    -3.9940 hc         1 8L5       0.028200
     41 H09         10.1700    36.0460    -0.9070 hc         1 8L5       0.028200
     42 H11         11.3710    35.9870    -2.2160 hc         1 8L5       0.028200
     43 H10         11.3740    37.3380    -1.0610 hc         1 8L5       0.028200
     44 H20         13.4400    40.4420    -6.6120 hn         1 8L5       0.340500
     45 H12         10.3490    41.4870    -3.2530 hn         1 8L5       0.331500
     46 H13          8.1720    43.0020    -2.8880 h2         1 8L5       0.042200
     47 H14          8.0430    41.8620    -1.4920 h2         1 8L5       0.042200
     48 H16          9.3860    43.7630    -0.9370 hn         1 8L5       0.394000
     49 H3          10.2330    42.3940    -0.8680 hn         1 8L5       0.394000
     50 H01         11.1770    39.3900    -5.8230 hn         1 8L5       0.439000
     51 H18         11.9770    42.3390    -6.4830 h1         1 8L5       0.047700
     52 H19         11.4720    42.0730    -8.1650 h1         1 8L5       0.047700
@<TRIPOS>BOND
     1     1     2 1   
     2     1    22 1   
     3     1    27 1   
     4     1    28 1   
     5     2     3 ar  
     6     2     7 ar  
     7     3     4 ar  
     8     3    29 1   
     9     4     5 ar  
    10     4    30 1   
    11     5     6 ar  
    12     5    31 1   
    13     6     7 ar  
    14     6    32 1   
    15     7    33 1   
    16     8     9 1   
    17     9    10 1   
    18     9    18 1   
    19     9    19 1   
    20    10    11 1   
    21    10    50 1   
    22    11    12 1   
    23    11    16 1   
    24    11    34 1   
    25    12    13 1   
    26    12    35 1   
    27    12    36 1   
    28    13    14 1   
    29    13    15 1   
    30    13    37 1   
    31    14    38 1   
    32    14    39 1   
    33    14    40 1   
    34    15    41 1   
    35    15    42 1   
    36    15    43 1   
    37    16    17 2   
    38    16    24 1   
    39    19    20 1   
    40    19    51 1   
    41    19    52 1   
    42    20    21 1   
    43    20    44 1   
    44    21    22 1   
    45    21    23 2   
    46    24    25 1   
    47    24    45 1   
    48    25    26 1   
    49    25    46 1   
    50    25    47 1   
    51    26    48 1   
    52    26    49 1   
@<TRIPOS>SUBSTRUCTURE
     1 8L5         1 TEMP              0 ****  ****    0 ROOT
