@<TRIPOS>MOLECULE
8L5
   52    52     1     0     0
SMALL
bcc


@<TRIPOS>ATOM
      1 C10         13.4510    40.0000   -11.4220 c3         1 8L5       0.208700
      2 C11         14.7610    40.7180   -11.2590 ca         1 8L5      -0.110300
      3 C12         14.8120    42.1070   -11.2260 ca         1 8L5      -0.098500
      4 C13         16.0270    42.7680   -11.0980 ca         1 8L5      -0.140500
      5 C14         17.2040    42.0420   -10.9850 ca         1 8L5      -0.129000
      6 C15         17.1610    40.6520   -11.0090 ca         1 8L5      -0.140500
      7 C16         15.9470    39.9960   -11.1480 ca         1 8L5      -0.098500
      8 O01         10.0430    37.5930    -6.5680 o          1 8L5      -0.814000
      9 P01         11.4760    37.5990    -6.1020 p5         1 8L5       1.187500
     10 N01         11.4800    38.0250    -4.4440 n7         1 8L5      -0.929300
     11 C01         10.2290    38.1380    -3.7200 c3         1 8L5       0.171500
     12 C02         10.5470    38.3190    -2.2280 c3         1 8L5      -0.081400
     13 C03          9.3640    38.5730    -1.2920 c3         1 8L5      -0.059700
     14 C04          8.3270    37.4560    -1.3370 c3         1 8L5      -0.086100
     15 C05          9.8790    38.7660     0.1310 c3         1 8L5      -0.086100
     16 C06          9.4130    39.3260    -4.2150 c          1 8L5       0.690100
     17 O02          8.1910    39.2900    -4.2800 o          1 8L5      -0.630100
     18 O03         12.3690    36.4020    -6.3330 o          1 8L5      -0.814000
     19 C08         12.3540    39.0420    -6.8480 c3         1 8L5      -0.079200
     20 N04         12.7180    38.7360    -8.2120 ns         1 8L5      -0.511900
     21 C09         12.8270    39.6680    -9.1690 c          1 8L5       0.743100
     22 O04         13.1880    39.1100   -10.3390 os         1 8L5      -0.440900
     23 O05         12.6130    40.8550    -9.0280 o          1 8L5      -0.622000
     24 N02         10.1240    40.4290    -4.4940 ns         1 8L5      -0.563900
     25 C07          9.5050    41.6830    -4.8420 c3         1 8L5       0.326200
     26 N03          8.9780    42.3690    -3.6760 n8         1 8L5      -0.918800
     27 H22         12.6330    40.7100   -11.5540 h1         1 8L5       0.056200
     28 H21         13.4760    39.3560   -12.3010 h1         1 8L5       0.056200
     29 H23         13.8940    42.6780   -11.3030 ha         1 8L5       0.137000
     30 H24         16.0520    43.8500   -11.0770 ha         1 8L5       0.123000
     31 H25         18.1520    42.5550   -10.8790 ha         1 8L5       0.119000
     32 H26         18.0760    40.0790   -10.9220 ha         1 8L5       0.123000
     33 H27         15.9260    38.9130   -11.1730 ha         1 8L5       0.137000
     34 H02          9.5860    37.2590    -3.8400 h1         1 8L5       0.066700
     35 H03         11.0690    37.4140    -1.8930 hc         1 8L5       0.035700
     36 H04         11.2640    39.1410    -2.1280 hc         1 8L5       0.035700
     37 H05          8.8790    39.5070    -1.5940 hc         1 8L5       0.058700
     38 H06          7.5320    37.6400    -0.6130 hc         1 8L5       0.028200
     39 H08          7.8610    37.3680    -2.3180 hc         1 8L5       0.028200
     40 H07          8.7790    36.4920    -1.0900 hc         1 8L5       0.028200
     41 H09          9.0630    39.0060     0.8150 hc         1 8L5       0.028200
     42 H11         10.3620    37.8570     0.5010 hc         1 8L5       0.028200
     43 H10         10.6090    39.5750     0.1890 hc         1 8L5       0.028200
     44 H20         12.9960    37.7880    -8.4190 hn         1 8L5       0.340500
     45 H12         11.1230    40.3870    -4.3680 hn         1 8L5       0.331500
     46 H13         10.2740    42.3090    -5.2920 h2         1 8L5       0.042200
     47 H14          8.7550    41.4900    -5.6150 h2         1 8L5       0.042200
     48 H16          8.7230    43.3120    -3.9420 hn         1 8L5       0.338800
     49 H3           8.1160    41.9220    -3.3920 hn         1 8L5       0.338800
     50 H01         12.2100    37.5800    -3.9040 hn         1 8L5       0.383800
     51 H18         13.2390    39.2880    -6.2490 h1         1 8L5       0.047700
     52 H19         11.7030    39.9150    -6.8330 h1         1 8L5       0.047700
@<TRIPOS>BOND
     1     1     2 1   
     2     1    22 1   
     3     1    27 1   
     4     1    28 1   
     5     2     3 ar  
     6     2     7 ar  
     7     3     4 ar  
     8     3    29 1   
     9     4     5 ar  
    10     4    30 1   
    11     5     6 ar  
    12     5    31 1   
    13     6     7 ar  
    14     6    32 1   
    15     7    33 1   
    16     8     9 1   
    17     9    10 1   
    18     9    18 1   
    19     9    19 1   
    20    10    11 1   
    21    10    50 1   
    22    11    12 1   
    23    11    16 1   
    24    11    34 1   
    25    12    13 1   
    26    12    35 1   
    27    12    36 1   
    28    13    14 1   
    29    13    15 1   
    30    13    37 1   
    31    14    38 1   
    32    14    39 1   
    33    14    40 1   
    34    15    41 1   
    35    15    42 1   
    36    15    43 1   
    37    16    17 2   
    38    16    24 1   
    39    19    20 1   
    40    19    51 1   
    41    19    52 1   
    42    20    21 1   
    43    20    44 1   
    44    21    22 1   
    45    21    23 2   
    46    24    25 1   
    47    24    45 1   
    48    25    26 1   
    49    25    46 1   
    50    25    47 1   
    51    26    48 1   
    52    26    49 1   
@<TRIPOS>SUBSTRUCTURE
     1 8L5         1 TEMP              0 ****  ****    0 ROOT
