@<TRIPOS>MOLECULE
8L7
   63    65     1     0     0
SMALL
No Charge or Current Charge


@<TRIPOS>ATOM
      1 C1          -5.3060     0.4380     0.2870 ca         1 8L7      -0.103300
      2 C10         -1.9490     2.0660    -0.2050 c          1 8L7       0.660100
      3 C11         -4.4680     1.6310    -0.2380 c3         1 8L7       0.200700
      4 C12         -4.6250     1.7010    -1.7800 c3         1 8L7      -0.103100
      5 C13         -4.8980     2.9900     0.3780 c3         1 8L7      -0.103100
      6 C17          0.5650     1.8720     0.2730 ca         1 8L7       0.033000
      7 C18          1.0370     3.0220    -0.3960 ca         1 8L7      -0.160000
      8 C19          2.4090     3.3280    -0.4040 ca         1 8L7      -0.042000
      9 C2          -6.3770     0.5880     1.2030 ca         1 8L7      -0.096000
     10 C20          3.3240     2.4880     0.2490 ca         1 8L7       0.025000
     11 C21          2.8660     1.3260     0.9090 ca         1 8L7       0.367000
     12 C22          1.4900     1.0370     0.9260 ca         1 8L7      -0.234000
     13 C24          3.7780    -0.8670     1.0100 c5         1 8L7       0.449500
     14 C25          5.1380    -1.5000     1.5050 c5         1 8L7       0.105300
     15 C26          5.4630    -2.4880     0.3240 c5         1 8L7       0.090300
     16 C27          4.5010    -2.0200    -0.8380 c5         1 8L7       0.173300
     17 C29          3.3320    -3.0220    -1.1100 c3         1 8L7       0.160600
     18 C3          -7.0980    -0.5310     1.6510 ca         1 8L7      -0.114000
     19 C4          -6.7680    -1.8160     1.1990 ca         1 8L7      -0.096000
     20 C5          -5.7090    -1.9970     0.2910 ca         1 8L7      -0.051800
     21 C6          -4.9880    -0.8700    -0.1530 ca         1 8L7      -0.096000
     22 C7          -5.3510    -3.3650    -0.1910 ce         1 8L7      -0.064400
     23 C8          -5.3410    -4.4900     0.8310 c3         1 8L7      -0.053900
     24 C9          -4.9890    -3.5910    -1.4720 c2         1 8L7      -0.308000
     25 N3          -3.0770     1.3510     0.1390 ns         1 8L7      -0.523900
     26 N34          3.7620     0.4870     1.5780 nu         1 8L7      -0.952200
     27 N4          -0.8050     1.5030     0.3370 ns         1 8L7      -0.169000
     28 O2          -1.9700     3.0690    -0.9030 o          1 8L7      -0.617100
     29 O3           3.9920    -0.7390    -0.3950 os         1 8L7      -0.464000
     30 O4           6.2420    -0.5750     1.6160 oh         1 8L7      -0.710000
     31 O5           6.8660    -2.3970    -0.0230 oh         1 8L7      -0.705000
     32 Cl           5.0420     2.9090     0.2310 cl         1 8L7      -0.215000
     33 H1          -5.6870     1.7310    -2.0530 hc         1 8L7       0.049700
     34 H2          -4.1550     2.5990    -2.1960 hc         1 8L7       0.049700
     35 H3          -4.1750     0.8300    -2.2700 hc         1 8L7       0.049700
     36 H4          -4.7760     2.9830     1.4680 hc         1 8L7       0.049700
     37 H5          -4.2990     3.8180    -0.0170 hc         1 8L7       0.049700
     38 H6          -5.9460     3.2120     0.1430 hc         1 8L7       0.049700
     39 H7           0.3600     3.6970    -0.9090 ha         1 8L7       0.143000
     40 H8           2.7630     4.2200    -0.9150 ha         1 8L7       0.126000
     41 H9          -6.6710     1.5620     1.5840 ha         1 8L7       0.117000
     42 H10          1.1370     0.1560     1.4550 ha         1 8L7       0.117000
     43 H11          2.8980    -1.4820     1.2480 h2         1 8L7       0.060700
     44 H12          4.9920    -2.0410     2.4510 h1         1 8L7       0.063700
     45 H13          5.2210    -3.5180     0.6250 h1         1 8L7       0.047700
     46 H14          5.0520    -1.8760    -1.7770 h1         1 8L7       0.086700
     47 H15          3.7660    -4.0190    -1.2700 h1         1 8L7       0.022200
     48 H16          2.6840    -3.0890    -0.2270 h1         1 8L7       0.022200
     49 H17         -7.9190    -0.3990     2.3520 ha         1 8L7       0.114000
     50 H18         -7.3420    -2.6700     1.5510 ha         1 8L7       0.114000
     51 H19         -4.1590    -1.0170    -0.8410 ha         1 8L7       0.121000
     52 H20         -6.3200    -4.9810     0.8860 hc         1 8L7       0.041367
     53 H21         -4.5990    -5.2570     0.5780 hc         1 8L7       0.041367
     54 H22         -5.0960    -4.1200     1.8330 hc         1 8L7       0.041367
     55 H23         -4.7040    -4.5840    -1.8210 ha         1 8L7       0.167000
     56 H24         -4.9770    -2.7960    -2.2180 ha         1 8L7       0.167000
     57 H25         -2.9250     0.5440     0.7290 hn         1 8L7       0.307500
     58 H26          4.7050     0.8740     1.6380 hn         1 8L7       0.512000
     59 H27         -0.9720     0.6700     0.8840 hn         1 8L7       0.142000
     60 H28          6.8810    -0.9900     0.9730 ho         1 8L7       0.526000
     61 H29          7.0850    -3.1750    -0.5930 ho         1 8L7       0.514000
     62 H30          1.8500    -3.3080    -2.3750 ho         1 8L7       0.502000
     63 O6           2.5670    -2.6400    -2.2680 oh         1 8L7      -0.700000
@<TRIPOS>BOND
     1     1     3 1   
     2     1     9 ar  
     3     1    21 ar  
     4     2    25 1   
     5     2    27 1   
     6     2    28 2   
     7     3     4 1   
     8     3     5 1   
     9     3    25 1   
    10     4    33 1   
    11     4    34 1   
    12     4    35 1   
    13     5    36 1   
    14     5    37 1   
    15     5    38 1   
    16     6     7 ar  
    17     6    12 ar  
    18     6    27 1   
    19     7     8 ar  
    20     7    39 1   
    21     8    10 ar  
    22     8    40 1   
    23     9    18 ar  
    24     9    41 1   
    25    10    11 ar  
    26    10    32 1   
    27    11    12 ar  
    28    11    26 1   
    29    12    42 1   
    30    13    14 1   
    31    13    26 1   
    32    13    29 1   
    33    13    43 1   
    34    14    15 1   
    35    14    30 1   
    36    14    44 1   
    37    15    16 1   
    38    15    31 1   
    39    15    45 1   
    40    16    17 1   
    41    16    29 1   
    42    16    46 1   
    43    17    47 1   
    44    17    48 1   
    45    17    63 1   
    46    18    19 ar  
    47    18    49 1   
    48    19    20 ar  
    49    19    50 1   
    50    20    21 ar  
    51    20    22 1   
    52    21    51 1   
    53    22    23 1   
    54    22    24 2   
    55    23    52 1   
    56    23    53 1   
    57    23    54 1   
    58    24    55 1   
    59    24    56 1   
    60    25    57 1   
    61    26    58 1   
    62    27    59 1   
    63    30    60 1   
    64    31    61 1   
    65    62    63 1   
@<TRIPOS>SUBSTRUCTURE
     1 8L7         1 TEMP              0 ****  ****    0 ROOT
