@<TRIPOS>MOLECULE
8L7
   63    65     1     0     0
SMALL
bcc


@<TRIPOS>ATOM
      1 C1          -5.1600     0.3950     0.2780 ca         1 8L7      -0.103300
      2 C10         -1.8910     2.1130    -0.0010 c          1 8L7       0.794100
      3 C11         -4.3530     1.6260    -0.1350 c3         1 8L7       0.200700
      4 C12         -4.4540     1.7480    -1.6620 c3         1 8L7      -0.103100
      5 C13         -4.8670     2.9120     0.5140 c3         1 8L7      -0.103100
      6 C17          0.5410     2.1680     0.4480 ca         1 8L7       0.125600
      7 C18          0.8010     3.5260     0.2660 ca         1 8L7      -0.178000
      8 C19          2.1160     3.9420     0.1410 ca         1 8L7      -0.060000
      9 C2          -6.3460     0.4820     0.9980 ca         1 8L7      -0.114000
     10 C20          3.1620     3.0420     0.2140 ca         1 8L7      -0.066600
     11 C21          2.9310     1.6730     0.4120 ca         1 8L7       0.228600
     12 C22          1.5990     1.2630     0.5070 ca         1 8L7      -0.252000
     13 C24          3.8220    -0.5960     0.6890 c5         1 8L7       0.426300
     14 C25          5.1230    -1.2930     1.0670 c5         1 8L7       0.082100
     15 C26          4.8320    -2.7150     0.5850 c5         1 8L7       0.067100
     16 C27          4.0460    -2.4670    -0.7030 c5         1 8L7       0.150100
     17 C29          3.0730    -3.5820    -1.0050 c3         1 8L7       0.137400
     18 C3          -7.0490    -0.6690     1.3310 ca         1 8L7      -0.132000
     19 C4          -6.5840    -1.9160     0.9500 ca         1 8L7      -0.114000
     20 C5          -5.4050    -2.0330     0.2100 ca         1 8L7      -0.051800
     21 C6          -4.7070    -0.8670    -0.1010 ca         1 8L7      -0.114000
     22 C7          -4.9070    -3.3590    -0.2270 ce         1 8L7      -0.064400
     23 C8          -5.2290    -4.5410     0.6420 c3         1 8L7      -0.053900
     24 C9          -4.2090    -3.5040    -1.3560 c2         1 8L7      -0.208000
     25 N3          -2.9760     1.3550     0.2930 ns         1 8L7      -0.590900
     26 N34          3.9840     0.7990     0.5180 nu         1 8L7      -0.758600
     27 N4          -0.7430     1.6510     0.6120 ns         1 8L7      -0.495100
     28 O2          -1.9020     3.0880    -0.7340 o          1 8L7      -0.617100
     29 O3           3.3670    -1.2410    -0.5020 os         1 8L7      -0.417600
     30 O4           6.1860    -0.7230     0.3510 oh         1 8L7      -0.587800
     31 O5           5.9820    -3.4690     0.3160 oh         1 8L7      -0.582800
     32 CL           4.7960     3.6230     0.0740 cl         1 8L7      -0.123400
     33 H1          -5.5040     1.8040    -1.9500 hc         1 8L7       0.049700
     34 H2          -3.9550     2.6420    -2.0280 hc         1 8L7       0.049700
     35 H3          -4.0180     0.8790    -2.1570 hc         1 8L7       0.049700
     36 H4          -4.8470     2.8480     1.6030 hc         1 8L7       0.049700
     37 H5          -4.2450     3.7520     0.2100 hc         1 8L7       0.049700
     38 H6          -5.8890     3.1330     0.2040 hc         1 8L7       0.049700
     39 H7           0.0090     4.2560     0.2320 ha         1 8L7       0.161000
     40 H8           2.3290     4.9930     0.0000 ha         1 8L7       0.144000
     41 H9          -6.7340     1.4400     1.3140 ha         1 8L7       0.135000
     42 H10          1.3680     0.2090     0.6030 ha         1 8L7       0.135000
     43 H11          3.0900    -0.7670     1.4860 h2         1 8L7       0.060700
     44 H12          5.2940    -1.2420     2.1490 h1         1 8L7       0.063700
     45 H13          4.1880    -3.2100     1.3240 h1         1 8L7       0.047700
     46 H14          4.7500    -2.3680    -1.5420 h1         1 8L7       0.086700
     47 H15          3.6350    -4.5250    -1.0200 h1         1 8L7       0.022200
     48 H16          2.3460    -3.6540    -0.1840 h1         1 8L7       0.022200
     49 H17         -7.9680    -0.5890     1.8980 ha         1 8L7       0.132000
     50 H18         -7.1520    -2.7960     1.2220 ha         1 8L7       0.132000
     51 H19         -3.7700    -0.9470    -0.6410 ha         1 8L7       0.139000
     52 H20         -6.3000    -4.7540     0.6510 hc         1 8L7       0.041367
     53 H21         -4.7230    -5.4370     0.2860 hc         1 8L7       0.041367
     54 H22         -4.9330    -4.3660     1.6780 hc         1 8L7       0.041367
     55 H23         -3.8370    -4.4730    -1.6620 ha         1 8L7       0.117000
     56 H24         -3.9980    -2.6760    -2.0210 ha         1 8L7       0.117000
     57 H25         -2.8890     0.7170     1.0690 hn         1 8L7       0.307500
     58 H26          4.8610     1.0980     0.1210 hn         1 8L7       0.456800
     59 H27         -0.7790     0.7240     1.0090 hn         1 8L7       0.308500
     60 H28          6.8240    -1.4210     0.1580 ho         1 8L7       0.427000
     61 H29          6.3040    -3.8500     1.1400 ho         1 8L7       0.415000
     62 H30          1.8430    -4.0520    -2.4230 ho         1 8L7       0.403000
     63 O6           2.4470    -3.3280    -2.2400 oh         1 8L7      -0.577800
@<TRIPOS>BOND
     1     1     3 1   
     2     1     9 ar  
     3     1    21 ar  
     4     2    25 1   
     5     2    27 1   
     6     2    28 2   
     7     3     4 1   
     8     3     5 1   
     9     3    25 1   
    10     4    33 1   
    11     4    34 1   
    12     4    35 1   
    13     5    36 1   
    14     5    37 1   
    15     5    38 1   
    16     6     7 ar  
    17     6    12 ar  
    18     6    27 1   
    19     7     8 ar  
    20     7    39 1   
    21     8    10 ar  
    22     8    40 1   
    23     9    18 ar  
    24     9    41 1   
    25    10    11 ar  
    26    10    32 1   
    27    11    12 ar  
    28    11    26 1   
    29    12    42 1   
    30    13    14 1   
    31    13    26 1   
    32    13    29 1   
    33    13    43 1   
    34    14    15 1   
    35    14    30 1   
    36    14    44 1   
    37    15    16 1   
    38    15    31 1   
    39    15    45 1   
    40    16    17 1   
    41    16    29 1   
    42    16    46 1   
    43    17    47 1   
    44    17    48 1   
    45    17    63 1   
    46    18    19 ar  
    47    18    49 1   
    48    19    20 ar  
    49    19    50 1   
    50    20    21 ar  
    51    20    22 1   
    52    21    51 1   
    53    22    23 1   
    54    22    24 2   
    55    23    52 1   
    56    23    53 1   
    57    23    54 1   
    58    24    55 1   
    59    24    56 1   
    60    25    57 1   
    61    26    58 1   
    62    27    59 1   
    63    30    60 1   
    64    31    61 1   
    65    62    63 1   
@<TRIPOS>SUBSTRUCTURE
     1 8L7         1 TEMP              0 ****  ****    0 ROOT
