@<TRIPOS>MOLECULE
8L8
   50    52     1     0     0
SMALL
No Charge or Current Charge


@<TRIPOS>ATOM
      1 C1           2.6460     0.1820    -1.2820 c6         1 8L8       0.167300
      2 C2           2.8850    -1.3360    -1.5800 c6         1 8L8       0.151300
      3 O2           3.8280    -1.5280    -2.6530 oh         1 8L8      -0.713000
      4 C3           3.4240    -2.0580    -0.3050 c6         1 8L8       0.134300
      5 O3           3.7800    -3.4180    -0.6150 oh         1 8L8      -0.670000
      6 C4           4.6610    -1.3160     0.2950 c6         1 8L8       0.100300
      7 O4           5.0800    -1.9830     1.5090 oh         1 8L8      -0.728000
      8 C5           4.3100     0.1890     0.5360 c6         1 8L8       0.140300
      9 O5           3.8370     0.7860    -0.7040 os         1 8L8      -0.424000
     10 C6           5.5360     1.0250     1.0370 c3         1 8L8       0.170600
     11 O6           5.2390     2.4240     1.2100 oh         1 8L8      -0.705000
     12 C7           1.4020     0.4620    -0.3730 c3         1 8L8      -0.076200
     13 C8           1.1520     1.9320    -0.0660 c2         1 8L8      -0.194200
     14 C9          -0.0380     2.5320     0.1690 ce         1 8L8      -0.173200
     15 C10         -1.3710     1.8680     0.1990 ca         1 8L8      -0.046800
     16 C11         -1.5770     0.6620     0.8940 ca         1 8L8      -0.105000
     17 C12         -2.8480     0.0620     0.9190 ca         1 8L8      -0.100000
     18 C13         -3.9520     0.6530     0.2550 cp         1 8L8      -0.034000
     19 C14         -3.7300     1.8750    -0.4280 ca         1 8L8      -0.100000
     20 C15         -2.4590     2.4760    -0.4510 ca         1 8L8      -0.105000
     21 C16         -5.3070     0.0130     0.2790 cp         1 8L8      -0.033000
     22 C17         -6.1780     0.0970    -0.8380 ca         1 8L8      -0.100000
     23 C18         -7.4490    -0.5040    -0.8160 ca         1 8L8      -0.111000
     24 C19         -7.8780    -1.2000     0.3250 ca         1 8L8      -0.108000
     25 C20         -7.0350    -1.2960     1.4430 ca         1 8L8      -0.111000
     26 C21         -5.7630    -0.6960     1.4200 ca         1 8L8      -0.100000
     27 H1           2.4530     0.6820    -2.2420 h1         1 8L8       0.099700
     28 H2           1.9210    -1.7920    -1.8540 h1         1 8L8       0.053700
     29 H3           2.6260    -2.0560     0.4520 h1         1 8L8       0.052700
     30 H4           5.4730    -1.3530    -0.4480 h1         1 8L8       0.062700
     31 H5           3.5260     0.2650     1.3030 h1         1 8L8       0.059700
     32 H8           2.0590     2.5430    -0.0630 ha         1 8L8       0.194000
     33 H9          -0.0720     3.6110     0.3300 ha         1 8L8       0.177000
     34 H11         -0.7570     0.1910     1.4280 ha         1 8L8       0.112500
     35 H12         -2.9740    -0.8770     1.4510 ha         1 8L8       0.114000
     36 H14         -4.5540     2.3720    -0.9340 ha         1 8L8       0.114000
     37 H15         -2.3190     3.4160    -0.9800 ha         1 8L8       0.112500
     38 H17         -5.8600     0.6200    -1.7360 ha         1 8L8       0.113500
     39 H18         -8.0990    -0.4310    -1.6850 ha         1 8L8       0.112000
     40 H19         -8.8620    -1.6640     0.3420 ha         1 8L8       0.112000
     41 H20         -7.3660    -1.8320     2.3300 ha         1 8L8       0.112000
     42 H21         -5.1320    -0.7710     2.3020 ha         1 8L8       0.113500
     43 H6           5.8780     0.6010     1.9900 h1         1 8L8       0.024200
     44 H6A          6.3530     0.9020     0.3130 h1         1 8L8       0.024200
     45 H7           0.5220     0.0520    -0.8830 hc         1 8L8       0.054700
     46 H7A          1.4730    -0.0950     0.5670 hc         1 8L8       0.054700
     47 HO2          4.1720    -2.4420    -2.5010 ho         1 8L8       0.521000
     48 HO3          4.2740    -3.7350     0.1770 ho         1 8L8       0.465000
     49 HO4          6.0390    -1.7910     1.6410 ho         1 8L8       0.510000
     50 HO6          6.0850     2.8700     1.4490 ho         1 8L8       0.503000
@<TRIPOS>BOND
     1     1     2 1   
     2     1     9 1   
     3     1    12 1   
     4     1    27 1   
     5     2     3 1   
     6     2     4 1   
     7     2    28 1   
     8     3    47 1   
     9     4     5 1   
    10     4     6 1   
    11     4    29 1   
    12     5    48 1   
    13     6     7 1   
    14     6     8 1   
    15     6    30 1   
    16     7    49 1   
    17     8     9 1   
    18     8    10 1   
    19     8    31 1   
    20    10    11 1   
    21    10    43 1   
    22    10    44 1   
    23    11    50 1   
    24    12    13 1   
    25    12    45 1   
    26    12    46 1   
    27    13    14 2   
    28    13    32 1   
    29    14    15 1   
    30    14    33 1   
    31    15    16 ar  
    32    15    20 ar  
    33    16    17 ar  
    34    16    34 1   
    35    17    18 ar  
    36    17    35 1   
    37    18    19 ar  
    38    18    21 1   
    39    19    20 ar  
    40    19    36 1   
    41    20    37 1   
    42    21    22 ar  
    43    21    26 ar  
    44    22    23 ar  
    45    22    38 1   
    46    23    24 ar  
    47    23    39 1   
    48    24    25 ar  
    49    24    40 1   
    50    25    26 ar  
    51    25    41 1   
    52    26    42 1   
@<TRIPOS>SUBSTRUCTURE
     1 8L8         1 TEMP              0 ****  ****    0 ROOT
