@<TRIPOS>MOLECULE
8L8
   50    52     1     0     0
SMALL
bcc


@<TRIPOS>ATOM
      1 C1           2.4780    -0.0270    -0.9820 c6         1 8L8       0.144100
      2 C2           2.7820    -1.5090    -1.1890 c6         1 8L8       0.128100
      3 O2           3.4490    -1.6390    -2.4230 oh         1 8L8      -0.590800
      4 C3           3.6380    -2.0430    -0.0430 c6         1 8L8       0.111100
      5 O3           3.9780    -3.3740    -0.3520 oh         1 8L8      -0.607800
      6 C4           4.8690    -1.1690     0.1630 c6         1 8L8       0.077100
      7 O4           5.5560    -1.6800     1.2860 oh         1 8L8      -0.605800
      8 C5           4.4190     0.2810     0.3700 c6         1 8L8       0.117100
      9 O5           3.6620     0.7040    -0.7440 os         1 8L8      -0.377600
     10 C6           5.5880     1.2300     0.5100 c3         1 8L8       0.147400
     11 O6           5.0990     2.5180     0.7950 oh         1 8L8      -0.582800
     12 C7           1.3990     0.2020     0.0850 c3         1 8L8      -0.076200
     13 C8           1.1410     1.6580     0.3080 c2         1 8L8      -0.144200
     14 C9          -0.0380     2.2780     0.4110 ce         1 8L8      -0.123200
     15 C10         -1.3810     1.6880     0.3760 ca         1 8L8      -0.046800
     16 C11         -1.6930     0.4560     0.9550 ca         1 8L8      -0.123000
     17 C12         -2.9770    -0.0600     0.8880 ca         1 8L8      -0.118000
     18 C13         -4.0040     0.6360     0.2490 cp         1 8L8      -0.034000
     19 C14         -3.7000     1.8820    -0.3050 ca         1 8L8      -0.118000
     20 C15         -2.4190     2.3980    -0.2340 ca         1 8L8      -0.123000
     21 C16         -5.3700     0.0800     0.1690 cp         1 8L8      -0.033000
     22 C17         -6.1620     0.2920    -0.9610 ca         1 8L8      -0.118000
     23 C18         -7.4440    -0.2320    -1.0400 ca         1 8L8      -0.129000
     24 C19         -7.9590    -0.9810     0.0100 ca         1 8L8      -0.126000
     25 C20         -7.1820    -1.1990     1.1390 ca         1 8L8      -0.129000
     26 C21         -5.9010    -0.6730     1.2190 ca         1 8L8      -0.118000
     27 H1           2.0880     0.3670    -1.9250 h1         1 8L8       0.099700
     28 H2           1.8300    -2.0610    -1.2010 h1         1 8L8       0.053700
     29 H3           3.0400    -2.0050     0.8800 h1         1 8L8       0.052700
     30 H4           5.4970    -1.2180    -0.7370 h1         1 8L8       0.062700
     31 H5           3.8230     0.3290     1.2960 h1         1 8L8       0.059700
     32 H8           2.0250     2.2850     0.3620 ha         1 8L8       0.144000
     33 H9          -0.0170     3.3600     0.4960 ha         1 8L8       0.127000
     34 H11         -0.9330    -0.1030     1.4840 ha         1 8L8       0.130500
     35 H12         -3.1760    -1.0280     1.3310 ha         1 8L8       0.132000
     36 H14         -4.4780     2.4670    -0.7790 ha         1 8L8       0.132000
     37 H15         -2.2150     3.3720    -0.6650 ha         1 8L8       0.130500
     38 H17         -5.7680     0.8550    -1.7980 ha         1 8L8       0.131500
     39 H18         -8.0390    -0.0610    -1.9280 ha         1 8L8       0.130000
     40 H19         -8.9590    -1.3910    -0.0530 ha         1 8L8       0.130000
     41 H20         -7.5750    -1.7750     1.9670 ha         1 8L8       0.130000
     42 H21         -5.3170    -0.8350     2.1160 ha         1 8L8       0.131500
     43 H6           6.2390     0.8630     1.3120 h1         1 8L8       0.024200
     44 H6A          6.1780     1.2090    -0.4180 h1         1 8L8       0.024200
     45 H7           0.4950    -0.3090    -0.2530 hc         1 8L8       0.054700
     46 H7A          1.6740    -0.2720     1.0330 hc         1 8L8       0.054700
     47 HO2          3.8110    -2.5300    -2.4700 ho         1 8L8       0.422000
     48 HO3          4.6550    -3.6630     0.2690 ho         1 8L8       0.426000
     49 HO4          6.4920    -1.4780     1.2010 ho         1 8L8       0.411000
     50 HO6          5.8530     3.0950     0.9480 ho         1 8L8       0.404000
@<TRIPOS>BOND
     1     1     2 1   
     2     1     9 1   
     3     1    12 1   
     4     1    27 1   
     5     2     3 1   
     6     2     4 1   
     7     2    28 1   
     8     3    47 1   
     9     4     5 1   
    10     4     6 1   
    11     4    29 1   
    12     5    48 1   
    13     6     7 1   
    14     6     8 1   
    15     6    30 1   
    16     7    49 1   
    17     8     9 1   
    18     8    10 1   
    19     8    31 1   
    20    10    11 1   
    21    10    43 1   
    22    10    44 1   
    23    11    50 1   
    24    12    13 1   
    25    12    45 1   
    26    12    46 1   
    27    13    14 2   
    28    13    32 1   
    29    14    15 1   
    30    14    33 1   
    31    15    16 ar  
    32    15    20 ar  
    33    16    17 ar  
    34    16    34 1   
    35    17    18 ar  
    36    17    35 1   
    37    18    19 ar  
    38    18    21 1   
    39    19    20 ar  
    40    19    36 1   
    41    20    37 1   
    42    21    22 ar  
    43    21    26 ar  
    44    22    23 ar  
    45    22    38 1   
    46    23    24 ar  
    47    23    39 1   
    48    24    25 ar  
    49    24    40 1   
    50    25    26 ar  
    51    25    41 1   
    52    26    42 1   
@<TRIPOS>SUBSTRUCTURE
     1 8L8         1 TEMP              0 ****  ****    0 ROOT
