@<TRIPOS>MOLECULE
8L9
   47    49     1     0     0
SMALL
No Charge or Current Charge


@<TRIPOS>ATOM
      1 C17          1.1000    -0.7810     0.9860 ca         1 8L9       0.245000
      2 C18          0.6730    -0.3640    -0.2850 ca         1 8L9      -0.127000
      3 C20         -0.1850     0.7370    -0.4230 ca         1 8L9      -0.031000
      4 C22         -0.6370     1.4400     0.7130 ca         1 8L9      -0.279500
      5 C23         -0.2310     1.0120     2.0110 ca         1 8L9      -0.039600
      6 C24          0.6400    -0.0940     2.1190 ca         1 8L9      -0.136000
      7 C26         -0.7200     1.6690     3.2940 c          1 8L9       0.725600
      8 C01          5.5090     0.9760    -1.5420 ca         1 8L9      -0.041000
      9 C03          5.6840     0.5530    -0.2140 ca         1 8L9       0.112500
     10 C04          4.9420    -0.5310     0.2870 ca         1 8L9      -0.007500
     11 C06          4.0180    -1.1990    -0.5440 ca         1 8L9      -0.288500
     12 C07          3.8450    -0.7730    -1.8800 ca         1 8L9      -0.007500
     13 C09          4.5900     0.3120    -2.3720 ca         1 8L9       0.112500
     14 Cl1          4.3690     0.8440    -4.0350 cl         1 8L9      -0.185500
     15 S12          3.0570    -2.5670     0.1100 sy         1 8L9       1.147600
     16 N13          1.9600    -1.8630     1.1690 nu         1 8L9      -0.863100
     17 O15          2.2340    -3.1760    -0.9380 o          1 8L9      -0.540000
     18 O16          3.8890    -3.3610     1.0150 o          1 8L9      -0.540000
     19 O27          0.1110     1.9890     4.1330 o          1 8L9      -0.688500
     20 O29         -1.9290     1.7530     3.4690 o          1 8L9      -0.688500
     21 S30         -1.7280     2.8610     0.4780 sy         1 8L9       1.128600
     22 O31         -1.3470     3.9410     1.3880 o          1 8L9      -0.547500
     23 O32         -1.9710     3.0920    -0.9480 o          1 8L9      -0.547500
     24 N33         -3.2030     2.3610     1.0860 nu         1 8L9      -0.869100
     25 C35         -3.9460     1.3030     0.5650 ca         1 8L9       0.234000
     26 C36         -3.6950    -0.0020     1.0310 ca         1 8L9      -0.073000
     27 C38         -4.4070    -1.0970     0.5140 ca         1 8L9      -0.070900
     28 C39         -5.3890    -0.8890    -0.4690 ca         1 8L9       0.185000
     29 C40         -5.6600     0.4070    -0.9310 ca         1 8L9      -0.165000
     30 C42         -4.9490     1.5120    -0.4200 ca         1 8L9       0.002700
     31 C43         -5.2900     2.9080    -0.9370 c3         1 8L9      -0.050800
     32 F1          -6.0810    -1.9340    -0.9750 f          1 8L9      -0.172000
     33 Br1         -4.0180    -2.8600     1.1570 br         1 8L9      -0.081100
     34 H1           0.9930    -0.8890    -1.1780 ha         1 8L9       0.130000
     35 H2          -0.4950     1.0390    -1.4230 ha         1 8L9       0.136000
     36 H3           0.9530    -0.4250     3.1060 ha         1 8L9       0.129000
     37 H4           6.0820     1.8140    -1.9260 ha         1 8L9       0.145000
     38 H5           5.0860    -0.8430     1.3200 ha         1 8L9       0.152500
     39 H6           3.1380    -1.2740    -2.5390 ha         1 8L9       0.152500
     40 H7           2.3020    -2.0460     2.1010 hn         1 8L9       0.488000
     41 H9          -2.9030     2.2010     2.0530 hn         1 8L9       0.556000
     42 H10         -2.9340    -0.1750     1.7870 ha         1 8L9       0.156000
     43 H11         -6.4270     0.5510    -1.6880 ha         1 8L9       0.125000
     44 H12         -4.6000     3.2110    -1.7320 hc         1 8L9       0.054033
     45 H13         -6.3050     2.9450    -1.3500 hc         1 8L9       0.054033
     46 H14         -5.2400     3.6590    -0.1400 hc         1 8L9       0.054033
     47 Cl2          6.8330     1.3860     0.8260 cl         1 8L9      -0.185500
@<TRIPOS>BOND
     1     1     2 ar  
     2     1     6 ar  
     3     1    16 1   
     4     2     3 ar  
     5     2    34 1   
     6     3     4 ar  
     7     3    35 1   
     8     4     5 ar  
     9     4    21 1   
    10     5     6 ar  
    11     5     7 1   
    12     6    36 1   
    13     7    19 1   
    14     7    20 1   
    15     8     9 ar  
    16     8    13 ar  
    17     8    37 1   
    18     9    10 ar  
    19     9    47 1   
    20    10    11 ar  
    21    10    38 1   
    22    11    12 ar  
    23    11    15 1   
    24    12    13 ar  
    25    12    39 1   
    26    13    14 1   
    27    15    16 1   
    28    15    17 2   
    29    15    18 2   
    30    16    40 1   
    31    21    22 2   
    32    21    23 2   
    33    21    24 1   
    34    24    25 1   
    35    24    41 1   
    36    25    26 ar  
    37    25    30 ar  
    38    26    27 ar  
    39    26    42 1   
    40    27    28 ar  
    41    27    33 1   
    42    28    29 ar  
    43    28    32 1   
    44    29    30 ar  
    45    29    43 1   
    46    30    31 1   
    47    31    44 1   
    48    31    45 1   
    49    31    46 1   
@<TRIPOS>SUBSTRUCTURE
     1 8L9         1 TEMP              0 ****  ****    0 ROOT
