@<TRIPOS>MOLECULE
8L9
   47    49     1     0     0
SMALL
abcg2


@<TRIPOS>ATOM
      1 C17          0.9340    -1.1400     0.1790 ca         1 8L9       0.245000
      2 C18          0.0830    -1.1380    -0.9170 ca         1 8L9      -0.127000
      3 C20         -0.7140    -0.0320    -1.1490 ca         1 8L9      -0.031000
      4 C22         -0.6870     1.0450    -0.2720 ca         1 8L9      -0.279500
      5 C23          0.1490     1.0530     0.8490 ca         1 8L9      -0.039600
      6 C24          0.9800    -0.0440     1.0320 ca         1 8L9      -0.136000
      7 C26          0.2000     2.1420     1.9190 c          1 8L9       0.725600
      8 C01          5.4250     1.3510     0.2730 ca         1 8L9      -0.041000
      9 C03          5.6640     0.2150     1.0310 ca         1 8L9       0.112500
     10 C04          4.9940    -0.9740     0.7930 ca         1 8L9      -0.007500
     11 C06          4.0730    -0.9990    -0.2430 ca         1 8L9      -0.288500
     12 C07          3.8070     0.1120    -1.0290 ca         1 8L9      -0.007500
     13 C09          4.4930     1.2820    -0.7500 ca         1 8L9       0.112500
     14 CL1          4.1840     2.6860    -1.7010 cl         1 8L9      -0.185500
     15 S12          3.1190    -2.4740    -0.5040 sy         1 8L9       1.147600
     16 N13          1.7600    -2.2630     0.4310 nu         1 8L9      -0.863100
     17 O15          2.6940    -2.4870    -1.8890 o          1 8L9      -0.540000
     18 O16          3.8240    -3.6000     0.0740 o          1 8L9      -0.540000
     19 O27          1.3230     2.4840     2.2940 o          1 8L9      -0.688500
     20 O29         -0.9020     2.5400     2.3670 o          1 8L9      -0.688500
     21 S30         -1.7620     2.4190    -0.6320 sy         1 8L9       1.128600
     22 O31         -1.0060     3.6490    -0.4820 o          1 8L9      -0.547500
     23 O32         -2.4310     2.1430    -1.8930 o          1 8L9      -0.547500
     24 N33         -2.9100     2.4130     0.5710 nu         1 8L9      -0.869100
     25 C35         -3.8340     1.3340     0.5600 ca         1 8L9       0.234000
     26 C36         -3.5160     0.1530     1.2220 ca         1 8L9      -0.073000
     27 C38         -4.4140    -0.9010     1.2460 ca         1 8L9      -0.070900
     28 C39         -5.6260    -0.7580     0.5950 ca         1 8L9       0.185000
     29 C40         -5.9550     0.4160    -0.0530 ca         1 8L9      -0.165000
     30 C42         -5.0710     1.4880    -0.0770 ca         1 8L9       0.002700
     31 C43         -5.4640     2.7760    -0.7320 c3         1 8L9      -0.050800
     32 F1          -6.5030    -1.7630     0.6020 f          1 8L9      -0.172000
     33 BR1         -4.0030    -2.4990     2.1380 br         1 8L9      -0.081100
     34 H1           0.0290    -1.9920    -1.5770 ha         1 8L9       0.130000
     35 H2          -1.3690    -0.0260    -2.0080 ha         1 8L9       0.136000
     36 H3           1.6700    -0.0450     1.8670 ha         1 8L9       0.129000
     37 H4           5.9560     2.2710     0.4750 ha         1 8L9       0.145000
     38 H5           5.1940    -1.8480     1.3960 ha         1 8L9       0.152500
     39 H6           3.0910     0.0780    -1.8380 ha         1 8L9       0.152500
     40 H7           1.9600    -2.4230     1.4140 hn         1 8L9       0.488000
     41 H9          -2.3680     2.4950     1.4550 hn         1 8L9       0.556000
     42 H10         -2.5640     0.0690     1.7310 ha         1 8L9       0.156000
     43 H11         -6.9220     0.4940    -0.5330 ha         1 8L9       0.125000
     44 H12         -4.8610     2.9790    -1.6160 hc         1 8L9       0.054033
     45 H13         -6.5090     2.7510    -1.0370 hc         1 8L9       0.054033
     46 H14         -5.3270     3.6150    -0.0510 hc         1 8L9       0.054033
     47 CL2          6.8290     0.2860     2.3000 cl         1 8L9      -0.185500
@<TRIPOS>BOND
     1     1     2 ar  
     2     1     6 ar  
     3     1    16 1   
     4     2     3 ar  
     5     2    34 1   
     6     3     4 ar  
     7     3    35 1   
     8     4     5 ar  
     9     4    21 1   
    10     5     6 ar  
    11     5     7 1   
    12     6    36 1   
    13     7    19 1   
    14     7    20 1   
    15     8     9 ar  
    16     8    13 ar  
    17     8    37 1   
    18     9    10 ar  
    19     9    47 1   
    20    10    11 ar  
    21    10    38 1   
    22    11    12 ar  
    23    11    15 1   
    24    12    13 ar  
    25    12    39 1   
    26    13    14 1   
    27    15    16 1   
    28    15    17 2   
    29    15    18 2   
    30    16    40 1   
    31    21    22 2   
    32    21    23 2   
    33    21    24 1   
    34    24    25 1   
    35    24    41 1   
    36    25    26 ar  
    37    25    30 ar  
    38    26    27 ar  
    39    26    42 1   
    40    27    28 ar  
    41    27    33 1   
    42    28    29 ar  
    43    28    32 1   
    44    29    30 ar  
    45    29    43 1   
    46    30    31 1   
    47    31    44 1   
    48    31    45 1   
    49    31    46 1   
@<TRIPOS>SUBSTRUCTURE
     1 8L9         1 TEMP              0 ****  ****    0 ROOT
