@<TRIPOS>MOLECULE
8LA
   62    64     1     0     0
SMALL
bcc


@<TRIPOS>ATOM
      1 C1           5.1630    -0.6500    -0.0300 ca         1 8LA      -0.105300
      2 C2           6.3350    -0.8440     0.6950 ca         1 8LA      -0.114000
      3 C3           7.1440     0.2370     1.0180 ca         1 8LA      -0.132000
      4 C4           6.7970     1.5210     0.6320 ca         1 8LA      -0.113000
      5 C5           5.6180     1.7490    -0.0820 ca         1 8LA      -0.050800
      6 C6           4.8280     0.6470    -0.4120 ca         1 8LA      -0.113000
      7 C10          1.7750    -2.0850    -0.4560 c          1 8LA       0.795100
      8 C11          4.2700    -1.8090    -0.4720 c3         1 8LA       0.198700
      9 C12          4.4390    -1.9610    -1.9900 c3         1 8LA      -0.103600
     10 C13          4.6310    -3.1240     0.2230 c3         1 8LA      -0.103600
     11 C17         -0.6680    -1.9780    -0.0550 ca         1 8LA       0.123600
     12 C18         -1.0250    -3.2910    -0.3610 ca         1 8LA      -0.167000
     13 C19         -2.3650    -3.6160    -0.5050 ca         1 8LA      -0.069000
     14 C20         -3.3520    -2.6650    -0.3320 ca         1 8LA      -0.035600
     15 C21         -3.0080    -1.3520    -0.0120 ca         1 8LA       0.180100
     16 C22         -1.6680    -1.0160     0.1110 ca         1 8LA      -0.254000
     17 C24         -3.8390     0.7200     0.8250 c5         1 8LA       0.305900
     18 C25         -5.2170     1.2520     1.2410 c5         1 8LA       0.096100
     19 C26         -4.9630     2.7570     1.1710 c5         1 8LA       0.121100
     20 C27         -4.0590     2.8640    -0.0550 c5         1 8LA       0.149100
     21 C29         -3.1840     4.0930    -0.0340 c3         1 8LA       0.139400
     22 C7           5.2260     3.1190    -0.4860 ce         1 8LA      -0.060400
     23 C8           6.3260     4.1220    -0.6890 c3         1 8LA      -0.054900
     24 C9           3.9450     3.4610    -0.6480 c2         1 8LA      -0.210000
     25 N3           2.9020    -1.4130    -0.1170 ns         1 8LA      -0.585900
     26 N4           0.6450    -1.5590     0.1380 ns         1 8LA      -0.496100
     27 O1          -4.0260    -0.4810     0.1300 os         1 8LA      -0.325900
     28 O2           1.7360    -3.0410    -1.2130 o          1 8LA      -0.617100
     29 O3          -3.2560     1.6900     0.0010 os         1 8LA      -0.410600
     30 O4          -6.2160     0.9330     0.3160 oh         1 8LA      -0.563800
     31 O5          -6.0950     3.5560     1.0190 oh         1 8LA      -0.558800
     32 O6          -2.4290     4.1460    -1.2200 oh         1 8LA      -0.580800
     33 CL          -5.0210    -3.0890    -0.4950 cl         1 8LA      -0.101400
     34 H1           6.6370    -1.8330     1.0070 ha         1 8LA       0.135000
     35 H2           8.0540     0.0740     1.5800 ha         1 8LA       0.132000
     36 H3           7.4440     2.3450     0.9010 ha         1 8LA       0.133000
     37 H4           3.9360     0.8050    -1.0070 ha         1 8LA       0.140000
     38 H5           5.4940    -2.1160    -2.2200 hc         1 8LA       0.050367
     39 H6           3.8810    -2.8100    -2.3750 hc         1 8LA       0.050367
     40 H7           4.1100    -1.0630    -2.5130 hc         1 8LA       0.050367
     41 H8           4.5830    -3.0260     1.3080 hc         1 8LA       0.050367
     42 H9           3.9340    -3.9030    -0.0810 hc         1 8LA       0.050367
     43 H10          5.6320    -3.4610    -0.0470 hc         1 8LA       0.050367
     44 H11         -0.2830    -4.0630    -0.4780 ha         1 8LA       0.166000
     45 H12         -2.6410    -4.6350    -0.7410 ha         1 8LA       0.149000
     46 H13         -1.3760     0.0070     0.3150 ha         1 8LA       0.149000
     47 H14         -3.1970     0.5430     1.6970 h2         1 8LA       0.054700
     48 H15         -5.4700     0.9130     2.2530 h1         1 8LA       0.050700
     49 H16         -4.3840     3.0420     2.0620 h1         1 8LA       0.034700
     50 H17         -4.6690     2.8630    -0.9690 h1         1 8LA       0.099700
     51 H18         -3.8400     4.9670     0.0710 h1         1 8LA       0.026200
     52 H19         -2.5460     4.0590     0.8600 h1         1 8LA       0.026200
     53 H20          7.1100     3.7270    -1.3380 hc         1 8LA       0.042367
     54 H21          5.9430     5.0390    -1.1320 hc         1 8LA       0.042367
     55 H22          6.8040     4.3890     0.2560 hc         1 8LA       0.042367
     56 H23          3.6690     4.4600    -0.9610 ha         1 8LA       0.115000
     57 H24          3.1300     2.7740    -0.4620 ha         1 8LA       0.115000
     58 H25          2.8360    -0.7730     0.6600 hn         1 8LA       0.306500
     59 H26          0.7410    -0.6670     0.5990 hn         1 8LA       0.311500
     60 H27         -6.2810    -0.0260     0.2530 ho         1 8LA       0.428000
     61 H28         -6.5340     3.6350     1.8720 ho         1 8LA       0.411000
     62 H29         -1.9050     4.9520    -1.2060 ho         1 8LA       0.403000
@<TRIPOS>BOND
     1     1     2 ar  
     2     1     6 ar  
     3     1     8 1   
     4     2     3 ar  
     5     2    34 1   
     6     3     4 ar  
     7     3    35 1   
     8     4     5 ar  
     9     4    36 1   
    10     5     6 ar  
    11     5    22 1   
    12     6    37 1   
    13     7    25 1   
    14     7    26 1   
    15     7    28 2   
    16     8     9 1   
    17     8    10 1   
    18     8    25 1   
    19     9    38 1   
    20     9    39 1   
    21     9    40 1   
    22    10    41 1   
    23    10    42 1   
    24    10    43 1   
    25    11    12 ar  
    26    11    16 ar  
    27    11    26 1   
    28    12    13 ar  
    29    12    44 1   
    30    13    14 ar  
    31    13    45 1   
    32    14    15 ar  
    33    14    33 1   
    34    15    16 ar  
    35    15    27 1   
    36    16    46 1   
    37    17    18 1   
    38    17    27 1   
    39    17    29 1   
    40    17    47 1   
    41    18    19 1   
    42    18    30 1   
    43    18    48 1   
    44    19    20 1   
    45    19    31 1   
    46    19    49 1   
    47    20    21 1   
    48    20    29 1   
    49    20    50 1   
    50    21    32 1   
    51    21    51 1   
    52    21    52 1   
    53    22    23 1   
    54    22    24 2   
    55    23    53 1   
    56    23    54 1   
    57    23    55 1   
    58    24    56 1   
    59    24    57 1   
    60    25    58 1   
    61    26    59 1   
    62    30    60 1   
    63    31    61 1   
    64    32    62 1   
@<TRIPOS>SUBSTRUCTURE
     1 8LA         1 TEMP              0 ****  ****    0 ROOT
