@<TRIPOS>MOLECULE
8LA
   62    64     1     0     0
SMALL
No Charge or Current Charge


@<TRIPOS>ATOM
      1 C1           5.2000    -0.6290    -0.0020 ca         1 8LA      -0.105300
      2 C2           6.2920    -0.9210     0.8530 ca         1 8LA      -0.096000
      3 C3           7.0700     0.1130     1.4000 ca         1 8LA      -0.114000
      4 C4           6.7750     1.4530     1.1100 ca         1 8LA      -0.095000
      5 C5           5.6940     1.7740     0.2690 ca         1 8LA      -0.050800
      6 C6           4.9190     0.7310    -0.2780 ca         1 8LA      -0.095000
      7 C10          1.7710    -2.0630    -0.5960 c          1 8LA       0.661100
      8 C11          4.3060    -1.7240    -0.6350 c3         1 8LA       0.198700
      9 C12          4.4310    -1.6280    -2.1800 c3         1 8LA      -0.103600
     10 C13          4.6920    -3.1580    -0.1830 c3         1 8LA      -0.103600
     11 C17         -0.7230    -1.8270    -0.0430 ca         1 8LA       0.031000
     12 C18         -1.2520    -2.8800    -0.8220 ca         1 8LA      -0.149000
     13 C19         -2.6350    -3.1350    -0.8310 ca         1 8LA      -0.051000
     14 C20         -3.5060    -2.3380    -0.0710 ca         1 8LA       0.056000
     15 C21         -2.9930    -1.2690     0.6910 ca         1 8LA       0.180100
     16 C22         -1.6030    -1.0330     0.7160 ca         1 8LA      -0.236000
     17 C24         -3.7630     0.8780     1.0350 c5         1 8LA       0.352300
     18 C25         -4.7840     1.7030     1.8760 c5         1 8LA       0.119300
     19 C26         -4.8440     2.9870     0.9850 c5         1 8LA       0.144300
     20 C27         -4.5600     2.4370    -0.4700 c5         1 8LA       0.172300
     21 C29         -3.3610     3.1520    -1.1620 c3         1 8LA       0.162600
     22 C7           5.3750     3.2000    -0.0410 ce         1 8LA      -0.060400
     23 C8           6.5390     4.1320    -0.3350 c3         1 8LA      -0.054900
     24 C9           4.1000     3.6390    -0.1200 c2         1 8LA      -0.310000
     25 N3           2.9340    -1.4360    -0.1980 ns         1 8LA      -0.518900
     26 N4           0.6620    -1.5210     0.0320 ns         1 8LA      -0.170000
     27 O1          -3.8540    -0.5060     1.4530 os         1 8LA      -0.349100
     28 O2           1.7390    -2.9790    -1.4030 o          1 8LA      -0.617100
     29 O3          -4.2800     1.0230    -0.2950 os         1 8LA      -0.457000
     30 O4          -6.0920     1.0840     1.9540 oh         1 8LA      -0.686000
     31 O5          -6.1310     3.5910     1.1330 oh         1 8LA      -0.681000
     32 O6          -3.2420     2.7670    -2.5450 oh         1 8LA      -0.703000
     33 Cl          -5.2370    -2.6840    -0.0950 cl         1 8LA      -0.193000
     34 H1           6.5600    -1.9420     1.1090 ha         1 8LA       0.117000
     35 H2           7.9050    -0.1270     2.0540 ha         1 8LA       0.114000
     36 H3           7.3830     2.2400     1.5480 ha         1 8LA       0.115000
     37 H4           4.0900     0.9840    -0.9340 ha         1 8LA       0.122000
     38 H5           5.4860    -1.6660    -2.4780 hc         1 8LA       0.050367
     39 H6           3.9190    -2.4550    -2.6810 hc         1 8LA       0.050367
     40 H7           4.0070    -0.6920    -2.5590 hc         1 8LA       0.050367
     41 H8           4.5960    -3.2660     0.9040 hc         1 8LA       0.050367
     42 H9           4.0490    -3.9140    -0.6490 hc         1 8LA       0.050367
     43 H10          5.7230    -3.3950    -0.4700 hc         1 8LA       0.050367
     44 H11         -0.6110    -3.5200    -1.4190 ha         1 8LA       0.148000
     45 H12         -3.0330    -3.9530    -1.4260 ha         1 8LA       0.131000
     46 H13         -1.2000    -0.2380     1.3390 ha         1 8LA       0.131000
     47 H14         -2.7450     1.2800     1.1200 h2         1 8LA       0.054700
     48 H15         -4.3930     1.9220     2.8790 h1         1 8LA       0.050700
     49 H16         -4.0590     3.6950     1.2860 h1         1 8LA       0.034700
     50 H17         -5.4450     2.5440    -1.1120 h1         1 8LA       0.099700
     51 H18         -3.5180     4.2370    -1.0930 h1         1 8LA       0.026200
     52 H19         -2.4360     2.9180    -0.6170 h1         1 8LA       0.026200
     53 H20          7.3850     3.5930    -0.7770 hc         1 8LA       0.042367
     54 H21          6.2540     4.9220    -1.0410 hc         1 8LA       0.042367
     55 H22          6.8940     4.6190     0.5810 hc         1 8LA       0.042367
     56 H23          3.8650     4.6740    -0.3690 ha         1 8LA       0.165000
     57 H24          3.2500     2.9850     0.0750 ha         1 8LA       0.165000
     58 H25          2.8270    -0.6980     0.4850 hn         1 8LA       0.306500
     59 H26          0.8730    -0.7640     0.6670 hn         1 8LA       0.145000
     60 H27         -5.9370     0.1190     1.8070 ho         1 8LA       0.527000
     61 H28         -6.6740     2.8440     1.4950 ho         1 8LA       0.510000
     62 H29         -2.4520     3.2320    -2.9080 ho         1 8LA       0.502000
@<TRIPOS>BOND
     1     1     2 ar  
     2     1     6 ar  
     3     1     8 1   
     4     2     3 ar  
     5     2    34 1   
     6     3     4 ar  
     7     3    35 1   
     8     4     5 ar  
     9     4    36 1   
    10     5     6 ar  
    11     5    22 1   
    12     6    37 1   
    13     7    25 1   
    14     7    26 1   
    15     7    28 2   
    16     8     9 1   
    17     8    10 1   
    18     8    25 1   
    19     9    38 1   
    20     9    39 1   
    21     9    40 1   
    22    10    41 1   
    23    10    42 1   
    24    10    43 1   
    25    11    12 ar  
    26    11    16 ar  
    27    11    26 1   
    28    12    13 ar  
    29    12    44 1   
    30    13    14 ar  
    31    13    45 1   
    32    14    15 ar  
    33    14    33 1   
    34    15    16 ar  
    35    15    27 1   
    36    16    46 1   
    37    17    18 1   
    38    17    27 1   
    39    17    29 1   
    40    17    47 1   
    41    18    19 1   
    42    18    30 1   
    43    18    48 1   
    44    19    20 1   
    45    19    31 1   
    46    19    49 1   
    47    20    21 1   
    48    20    29 1   
    49    20    50 1   
    50    21    32 1   
    51    21    51 1   
    52    21    52 1   
    53    22    23 1   
    54    22    24 2   
    55    23    53 1   
    56    23    54 1   
    57    23    55 1   
    58    24    56 1   
    59    24    57 1   
    60    25    58 1   
    61    26    59 1   
    62    30    60 1   
    63    31    61 1   
    64    32    62 1   
@<TRIPOS>SUBSTRUCTURE
     1 8LA         1 TEMP              0 ****  ****    0 ROOT
