@<TRIPOS>MOLECULE
8LB
   66    66     1     0     0
SMALL
No Charge or Current Charge


@<TRIPOS>ATOM
      1 C10          1.1430    -3.5740    -0.5030 c3         1 8LB      -0.070400
      2 C11         -0.3600    -3.6080    -0.8520 c3         1 8LB       0.137800
      3 C12          5.1010    -0.8490     1.3510 c          1 8LB       0.723000
      4 C13         -0.3130     1.1540    -0.0500 c3         1 8LB      -0.264000
      5 C14         -1.9810    -0.5490     0.8260 c          1 8LB       0.622100
      6 C15         -3.7320    -2.1170     1.2640 c3         1 8LB       0.230900
      7 C16         -4.9500    -2.7040     0.5620 ca         1 8LB      -0.076300
      8 C19         -7.2120    -3.7860    -0.7310 ca         1 8LB      -0.114000
      9 C20         -7.2550    -2.4800    -0.2140 ca         1 8LB      -0.122500
     10 C21         -6.1270    -1.9410     0.4300 ca         1 8LB      -0.087500
     11 O01          0.2000     1.8280    -2.7010 o          1 8LB      -0.834500
     12 N01          1.2660     3.2170    -0.8470 n7         1 8LB      -0.988500
     13 C01          2.6350     2.6150    -0.7560 c3         1 8LB       0.171500
     14 C02          3.6850     3.7510    -0.6110 c3         1 8LB      -0.066400
     15 C03          3.7870     4.7470    -1.8040 c3         1 8LB      -0.056700
     16 C04          4.7550     5.9060    -1.4710 c3         1 8LB      -0.082600
     17 C05          4.1960     4.0590    -3.1290 c3         1 8LB      -0.082600
     18 N02          3.3390     0.3470     0.0270 ns         1 8LB      -0.460900
     19 C07          3.5930    -0.7940     0.9420 c3         1 8LB      -0.025300
     20 O04          2.5300     1.8230     1.5740 o          1 8LB      -0.649100
     21 O05         -1.1980     3.4180    -1.3380 o          1 8LB      -0.834500
     22 N04         -1.5320     0.3030    -0.1480 ns         1 8LB      -0.428900
     23 O06         -3.1010    -1.1780     0.3780 os         1 8LB      -0.472100
     24 C17         -4.9130    -4.0130     0.0400 ca         1 8LB      -0.087500
     25 C18         -6.0400    -4.5520    -0.6040 ca         1 8LB      -0.122500
     26 O07         -1.4560    -0.7160     1.9160 o          1 8LB      -0.578000
     27 C08          3.1210    -2.1400     0.3330 c3         1 8LB      -0.072400
     28 C09          1.6140    -2.1860    -0.0170 c3         1 8LB      -0.095400
     29 H1           1.3520    -4.3180     0.2760 hc         1 8LB       0.030200
     30 H2           1.7270    -3.8590    -1.3880 hc         1 8LB       0.030200
     31 H3          -0.9520    -3.3600     0.0410 h1         1 8LB       0.037200
     32 H4          -0.5770    -2.8620    -1.6290 h1         1 8LB       0.037200
     33 H6           0.5580     0.4970    -0.0870 h1         1 8LB       0.060700
     34 H7          -0.3190     1.6810     0.9110 h1         1 8LB       0.060700
     35 H8          -4.0520    -1.6220     2.1900 h1         1 8LB       0.046700
     36 H9          -3.0370    -2.9230     1.5340 h1         1 8LB       0.046700
     37 H10         -8.0840    -4.2030    -1.2300 ha         1 8LB       0.099000
     38 H11         -8.1600    -1.8860    -0.3130 ha         1 8LB       0.104000
     39 H12         -6.1670    -0.9280     0.8260 ha         1 8LB       0.117500
     40 H13          0.9740     3.5270     0.0770 hn         1 8LB       0.441000
     41 H14          2.8560     2.0770    -1.6870 h1         1 8LB       0.072700
     42 H15          3.4660     4.3130     0.3060 hc         1 8LB       0.042700
     43 H16          4.6710     3.2940    -0.4580 hc         1 8LB       0.042700
     44 H17          2.7970     5.1950    -1.9580 hc         1 8LB       0.057700
     45 H18          5.7730     5.5310    -1.3090 hc         1 8LB       0.022033
     46 H19          4.7830     6.6350    -2.2900 hc         1 8LB       0.022033
     47 H20          4.4340     6.4320    -0.5640 hc         1 8LB       0.022033
     48 H21          5.1520     3.5340    -3.0190 hc         1 8LB       0.022033
     49 H22          3.4380     3.3360    -3.4510 hc         1 8LB       0.022033
     50 H23          4.3040     4.8000    -3.9310 hc         1 8LB       0.022033
     51 H24          3.5860     0.2360    -0.9490 hn         1 8LB       0.316500
     52 H25          3.0180    -0.6330     1.8630 h1         1 8LB       0.049700
     53 H28         -2.0920     0.3270    -0.9940 hn         1 8LB       0.334500
     54 H29         -4.0100    -4.6130     0.1340 ha         1 8LB       0.117500
     55 H30         -6.0060    -5.5630    -1.0040 ha         1 8LB       0.104000
     56 H31          3.7070    -2.3560    -0.5690 hc         1 8LB       0.039200
     57 H32          3.3420    -2.9390     1.0510 hc         1 8LB       0.039200
     58 H33          1.4040    -1.4520    -0.8040 hc         1 8LB       0.051700
     59 H34          1.0290    -1.8940     0.8640 hc         1 8LB       0.051700
     60 N1          -0.7710    -4.9390    -1.3420 n8         1 8LB      -1.002200
     61 H5          -0.6440    -5.6260    -0.5900 hn         1 8LB       0.375500
     62 H35         -1.7840    -4.9370    -1.5070 hn         1 8LB       0.375500
     63 O02          5.9500    -0.8380     0.4680 o          1 8LB      -0.737000
     64 C06          2.8270     1.5750     0.4090 c          1 8LB       0.566100
     65 O03          5.3790    -0.8370     2.5430 o          1 8LB      -0.737000
     66 P01         -0.0810     2.4350    -1.3710 p5         1 8LB       1.382300
@<TRIPOS>BOND
     1     1     2 1   
     2     1    28 1   
     3     1    29 1   
     4     1    30 1   
     5     2    31 1   
     6     2    32 1   
     7     2    60 1   
     8     3    19 1   
     9     3    63 1   
    10     3    65 1   
    11     4    22 1   
    12     4    33 1   
    13     4    34 1   
    14     4    66 1   
    15     5    22 1   
    16     5    23 1   
    17     5    26 2   
    18     6     7 1   
    19     6    23 1   
    20     6    35 1   
    21     6    36 1   
    22     7    10 ar  
    23     7    24 ar  
    24     8     9 ar  
    25     8    25 ar  
    26     8    37 1   
    27     9    10 ar  
    28     9    38 1   
    29    10    39 1   
    30    11    66 1   
    31    12    13 1   
    32    12    40 1   
    33    12    66 1   
    34    13    14 1   
    35    13    41 1   
    36    13    64 1   
    37    14    15 1   
    38    14    42 1   
    39    14    43 1   
    40    15    16 1   
    41    15    17 1   
    42    15    44 1   
    43    16    45 1   
    44    16    46 1   
    45    16    47 1   
    46    17    48 1   
    47    17    49 1   
    48    17    50 1   
    49    18    19 1   
    50    18    51 1   
    51    18    64 1   
    52    19    27 1   
    53    19    52 1   
    54    20    64 2   
    55    21    66 1   
    56    22    53 1   
    57    24    25 ar  
    58    24    54 1   
    59    25    55 1   
    60    27    28 1   
    61    27    56 1   
    62    27    57 1   
    63    28    58 1   
    64    28    59 1   
    65    60    61 1   
    66    60    62 1   
@<TRIPOS>SUBSTRUCTURE
     1 8LB         1 TEMP              0 ****  ****    0 ROOT
