@<TRIPOS>MOLECULE
8LB
   66    66     1     0     0
SMALL
abcg2


@<TRIPOS>ATOM
      1 C10          0.7650    -3.4450    -0.5670 c3         1 8LB      -0.070400
      2 C11         -0.7180    -3.3730    -0.8930 c3         1 8LB       0.137800
      3 C12          4.8860    -1.1580     1.2270 c          1 8LB       0.723000
      4 C13         -0.2290     1.2140     0.5710 c3         1 8LB      -0.264000
      5 C14         -2.1970    -0.1340     1.1330 c          1 8LB       0.622100
      6 C15         -4.0320    -1.6070     1.4010 c3         1 8LB       0.230900
      7 C16         -4.8220    -2.5340     0.5270 ca         1 8LB      -0.076300
      8 C19         -6.2430    -4.2370    -1.1650 ca         1 8LB      -0.114000
      9 C20         -6.6770    -2.9330    -0.9650 ca         1 8LB      -0.122500
     10 C21         -5.9670    -2.0860    -0.1250 ca         1 8LB      -0.087500
     11 O01          0.5490     1.2670    -2.0220 o          1 8LB      -0.834500
     12 N01          1.6580     3.0190    -0.4580 n7         1 8LB      -0.988500
     13 C01          2.9800     2.4880    -0.7060 c3         1 8LB       0.171500
     14 C02          4.0200     3.6010    -0.7650 c3         1 8LB      -0.066400
     15 C03          3.6830     4.7280    -1.7430 c3         1 8LB      -0.056700
     16 C04          4.7990     5.7690    -1.7420 c3         1 8LB      -0.082600
     17 C05          3.4170     4.2180    -3.1550 c3         1 8LB      -0.082600
     18 N02          3.1930     0.1830    -0.0200 ns         1 8LB      -0.460900
     19 C07          3.3940    -0.9320     0.8740 c3         1 8LB      -0.025300
     20 O04          3.6770     1.7780     1.4950 o          1 8LB      -0.649100
     21 O05         -0.8550     3.2720    -1.0800 o          1 8LB      -0.834500
     22 N04         -1.3340     0.3490     0.2300 ns         1 8LB      -0.428900
     23 O06         -3.0940    -0.9440     0.5490 os         1 8LB      -0.472100
     24 C17         -4.3990    -3.8440     0.3260 ca         1 8LB      -0.087500
     25 C18         -5.1040    -4.6940    -0.5150 ca         1 8LB      -0.122500
     26 O07         -2.1910     0.1160     2.3230 o          1 8LB      -0.578000
     27 C08          2.8120    -2.2010     0.2540 c3         1 8LB      -0.072400
     28 C09          1.3160    -2.1270    -0.0380 c3         1 8LB      -0.095400
     29 H1           0.9380    -4.2310     0.1770 hc         1 8LB       0.030200
     30 H2           1.3130    -3.7430    -1.4660 hc         1 8LB       0.030200
     31 H3          -1.2600    -3.0230    -0.0040 h1         1 8LB       0.037200
     32 H4          -0.8790    -2.6120    -1.6620 h1         1 8LB       0.037200
     33 H6           0.6340     0.6330     0.9090 h1         1 8LB       0.060700
     34 H7          -0.5200     1.8690     1.3930 h1         1 8LB       0.060700
     35 H8          -4.6850    -0.8770     1.8840 h1         1 8LB       0.046700
     36 H9          -3.5100    -2.1640     2.1820 h1         1 8LB       0.046700
     37 H10         -6.7930    -4.8970    -1.8230 ha         1 8LB       0.099000
     38 H11         -7.5700    -2.5760    -1.4620 ha         1 8LB       0.104000
     39 H12         -6.3100    -1.0690     0.0290 ha         1 8LB       0.117500
     40 H13          1.6030     3.6630     0.3190 hn         1 8LB       0.441000
     41 H14          2.9490     1.9880    -1.6760 h1         1 8LB       0.072700
     42 H15          4.1520     4.0240     0.2360 hc         1 8LB       0.042700
     43 H16          4.9860     3.1600    -1.0390 hc         1 8LB       0.042700
     44 H17          2.7690     5.2140    -1.3880 hc         1 8LB       0.057700
     45 H18          5.7350     5.3460    -2.1140 hc         1 8LB       0.022033
     46 H19          4.5460     6.6190    -2.3780 hc         1 8LB       0.022033
     47 H20          4.9850     6.1510    -0.7360 hc         1 8LB       0.022033
     48 H21          4.2770     3.6700    -3.5470 hc         1 8LB       0.022033
     49 H22          2.5500     3.5560    -3.1910 hc         1 8LB       0.022033
     50 H23          3.2190     5.0480    -3.8360 hc         1 8LB       0.022033
     51 H24          2.8880     0.0040    -0.9630 hn         1 8LB       0.316500
     52 H25          2.8520    -0.7300     1.8050 h1         1 8LB       0.049700
     53 H28         -1.3590    -0.0210    -0.7080 hn         1 8LB       0.334500
     54 H29         -3.5130    -4.2050     0.8360 ha         1 8LB       0.117500
     55 H30         -4.7700    -5.7140    -0.6560 ha         1 8LB       0.104000
     56 H31          3.3550    -2.4380    -0.6680 hc         1 8LB       0.039200
     57 H32          3.0030    -3.0220     0.9480 hc         1 8LB       0.039200
     58 H33          1.1110    -1.3340    -0.7640 hc         1 8LB       0.051700
     59 H34          0.7840    -1.8420     0.8760 hc         1 8LB       0.051700
     60 N1          -1.2090    -4.6460    -1.4020 n8         1 8LB      -1.002200
     61 H5          -1.1810    -5.3340    -0.6590 hn         1 8LB       0.375500
     62 H35         -2.1860    -4.5520    -1.6510 hn         1 8LB       0.375500
     63 O02          5.7410    -0.6980     0.4530 o          1 8LB      -0.737000
     64 C06          3.3470     1.4540     0.3580 c          1 8LB       0.566100
     65 O03          5.0840    -1.8350     2.2570 o          1 8LB      -0.737000
     66 P01          0.2230     2.2330    -0.9050 p5         1 8LB       1.382300
@<TRIPOS>BOND
     1     1     2 1   
     2     1    28 1   
     3     1    29 1   
     4     1    30 1   
     5     2    31 1   
     6     2    32 1   
     7     2    60 1   
     8     3    19 1   
     9     3    63 1   
    10     3    65 1   
    11     4    22 1   
    12     4    33 1   
    13     4    34 1   
    14     4    66 1   
    15     5    22 1   
    16     5    23 1   
    17     5    26 2   
    18     6     7 1   
    19     6    23 1   
    20     6    35 1   
    21     6    36 1   
    22     7    10 ar  
    23     7    24 ar  
    24     8     9 ar  
    25     8    25 ar  
    26     8    37 1   
    27     9    10 ar  
    28     9    38 1   
    29    10    39 1   
    30    11    66 1   
    31    12    13 1   
    32    12    40 1   
    33    12    66 1   
    34    13    14 1   
    35    13    41 1   
    36    13    64 1   
    37    14    15 1   
    38    14    42 1   
    39    14    43 1   
    40    15    16 1   
    41    15    17 1   
    42    15    44 1   
    43    16    45 1   
    44    16    46 1   
    45    16    47 1   
    46    17    48 1   
    47    17    49 1   
    48    17    50 1   
    49    18    19 1   
    50    18    51 1   
    51    18    64 1   
    52    19    27 1   
    53    19    52 1   
    54    20    64 2   
    55    21    66 1   
    56    22    53 1   
    57    24    25 ar  
    58    24    54 1   
    59    25    55 1   
    60    27    28 1   
    61    27    56 1   
    62    27    57 1   
    63    28    58 1   
    64    28    59 1   
    65    60    61 1   
    66    60    62 1   
@<TRIPOS>SUBSTRUCTURE
     1 8LB         1 TEMP              0 ****  ****    0 ROOT
