@<TRIPOS>MOLECULE
8LC
   58    59     1     0     0
SMALL
bcc


@<TRIPOS>ATOM
      1 C2           9.1490    -0.4070     0.2440 ca         1 8LC       0.152100
      2 C3           7.9700     0.0820    -0.3110 ca         1 8LC      -0.199100
      3 C4           7.9160     1.3970    -0.7800 ca         1 8LC      -0.102500
      4 C5           9.0280     2.2140    -0.7070 ca         1 8LC      -0.141000
      5 C6          10.2070     1.7300    -0.1480 ca         1 8LC      -0.137000
      6 C7          10.2690     0.4330     0.3290 ca         1 8LC       0.065100
      7 C8           6.7800    -0.8130    -0.4510 c          1 8LC       0.691200
      8 O9           6.8560    -1.9230    -0.9600 o          1 8LC      -0.618100
      9 N10          5.6300    -0.2820    -0.0060 ns         1 8LC      -0.560400
     10 C11          4.3550    -0.9640    -0.0770 c3         1 8LC       0.102500
     11 C12          3.2020     0.0270    -0.0550 c3         1 8LC      -0.094900
     12 C13          1.8520    -0.6780    -0.0840 c3         1 8LC      -0.072900
     13 C14          0.6740     0.2880    -0.0690 c3         1 8LC      -0.074900
     14 C15         -0.6730    -0.4220    -0.0810 c3         1 8LC      -0.074900
     15 C16         -1.8570     0.5370    -0.0660 c3         1 8LC      -0.072900
     16 C17         -3.1970    -0.1860    -0.0700 c3         1 8LC      -0.094900
     17 C18         -4.3660     0.7850    -0.0530 c3         1 8LC       0.102500
     18 N19         -5.6230     0.0590    -0.0550 ns         1 8LC      -0.560400
     19 C20         -6.8080     0.6620    -0.0430 c          1 8LC       0.691200
     20 C21         -8.0370    -0.1710    -0.0570 ca         1 8LC      -0.199100
     21 C22         -9.2650     0.4900     0.0700 ca         1 8LC       0.152100
     22 C23        -10.4630    -0.2470     0.0750 ca         1 8LC       0.065100
     23 C24        -10.4240    -1.6210    -0.0570 ca         1 8LC      -0.137000
     24 C25         -9.2030    -2.2790    -0.1950 ca         1 8LC      -0.141000
     25 C26         -8.0240    -1.5650    -0.1980 ca         1 8LC      -0.102500
     26 O27         -6.8910     1.9030    -0.0150 o          1 8LC      -0.618100
     27 O29         11.3670    -0.1140     0.8970 oh         1 8LC      -0.506600
     28 O30         -9.3830     1.8160     0.1930 oh         1 8LC      -0.507600
     29 O31        -11.6510     0.3770     0.2040 oh         1 8LC      -0.506600
     30 O1           9.1900    -1.6650     0.7200 oh         1 8LC      -0.507600
     31 H1          10.0530    -1.8450     1.1130 ho         1 8LC       0.470000
     32 H4           7.0020     1.7680    -1.2250 ha         1 8LC       0.130500
     33 H5           8.9890     3.2270    -1.0830 ha         1 8LC       0.137500
     34 H6          11.0810     2.3680    -0.0850 ha         1 8LC       0.141500
     35 H10          5.6710     0.5800     0.5150 hn         1 8LC       0.317000
     36 H111         4.3220    -1.5510    -0.9950 h1         1 8LC       0.055200
     37 H112         4.2540    -1.6700     0.7550 h1         1 8LC       0.055200
     38 H121         3.2680     0.6490     0.8440 hc         1 8LC       0.043200
     39 H122         3.2890     0.7030    -0.9110 hc         1 8LC       0.043200
     40 H131         1.7900    -1.3120    -0.9750 hc         1 8LC       0.042950
     41 H132         1.7760    -1.3530     0.7750 hc         1 8LC       0.042950
     42 H141         0.7400     0.9280     0.8170 hc         1 8LC       0.039200
     43 H142         0.7420     0.9580    -0.9330 hc         1 8LC       0.039200
     44 H151        -0.7390    -1.0640    -0.9660 hc         1 8LC       0.039200
     45 H152        -0.7390    -1.0910     0.7840 hc         1 8LC       0.039200
     46 H161        -1.7910     1.1810     0.8170 hc         1 8LC       0.042950
     47 H162        -1.7970     1.2020    -0.9340 hc         1 8LC       0.042950
     48 H171        -3.2660    -0.8250    -0.9560 hc         1 8LC       0.043200
     49 H172        -3.2590    -0.8460     0.8010 hc         1 8LC       0.043200
     50 H181        -4.3080     1.4230     0.8330 h1         1 8LC       0.055200
     51 H182        -4.3180     1.4420    -0.9250 h1         1 8LC       0.055200
     52 H19         -5.5740    -0.9460    -0.0360 hn         1 8LC       0.317000
     53 H26         -7.0970    -2.1080    -0.3250 ha         1 8LC       0.130500
     54 H29         12.0880     0.5240     0.9420 ho         1 8LC       0.442500
     55 H30         -8.4560     2.1760     0.1310 ho         1 8LC       0.470000
     56 H24        -11.3510    -2.1810    -0.0570 ha         1 8LC       0.141500
     57 H31        -11.5220     1.3320     0.2470 ho         1 8LC       0.442500
     58 H25         -9.1850    -3.3540    -0.3040 ha         1 8LC       0.137500
@<TRIPOS>BOND
     1     1     2 ar  
     2     1     6 ar  
     3     1    30 1   
     4     2     3 ar  
     5     2     7 1   
     6     3     4 ar  
     7     3    32 1   
     8     4     5 ar  
     9     4    33 1   
    10     5     6 ar  
    11     5    34 1   
    12     6    27 1   
    13     7     8 2   
    14     7     9 1   
    15     9    10 1   
    16     9    35 1   
    17    10    11 1   
    18    10    36 1   
    19    10    37 1   
    20    11    12 1   
    21    11    38 1   
    22    11    39 1   
    23    12    13 1   
    24    12    40 1   
    25    12    41 1   
    26    13    14 1   
    27    13    42 1   
    28    13    43 1   
    29    14    15 1   
    30    14    44 1   
    31    14    45 1   
    32    15    16 1   
    33    15    46 1   
    34    15    47 1   
    35    16    17 1   
    36    16    48 1   
    37    16    49 1   
    38    17    18 1   
    39    17    50 1   
    40    17    51 1   
    41    18    19 1   
    42    18    52 1   
    43    19    20 1   
    44    19    26 2   
    45    20    21 ar  
    46    20    25 ar  
    47    21    22 ar  
    48    21    28 1   
    49    22    23 ar  
    50    22    29 1   
    51    23    24 ar  
    52    23    56 1   
    53    24    25 ar  
    54    24    58 1   
    55    25    53 1   
    56    27    54 1   
    57    28    55 1   
    58    29    57 1   
    59    30    31 1   
@<TRIPOS>SUBSTRUCTURE
     1 8LC         1 TEMP              0 ****  ****    0 ROOT
