@<TRIPOS>MOLECULE
8LC
   58    59     1     0     0
SMALL
No Charge or Current Charge


@<TRIPOS>ATOM
      1 C2           9.4130    -0.4750     0.2170 ca         1 8LC       0.152100
      2 C3           8.1190    -0.0190    -0.1500 ca         1 8LC      -0.199100
      3 C4           7.9780     1.3430    -0.5240 ca         1 8LC      -0.084500
      4 C5           9.0820     2.2120    -0.5320 ca         1 8LC      -0.123000
      5 C6          10.3530     1.7460    -0.1670 ca         1 8LC      -0.119000
      6 C7          10.5180     0.4050     0.2080 ca         1 8LC       0.065100
      7 C8           6.9110    -0.9410    -0.1580 c          1 8LC       0.624200
      8 O9           6.9800    -2.1590    -0.2580 o          1 8LC      -0.618100
      9 N10          5.6850    -0.3140    -0.1010 ns         1 8LC      -0.493400
     10 C11          4.3970    -1.0060    -0.1310 c3         1 8LC       0.102500
     11 C12          3.2200    -0.0150    -0.0740 c3         1 8LC      -0.094900
     12 C13          1.8440    -0.7160    -0.1060 c3         1 8LC      -0.072900
     13 C14          0.6600     0.2750    -0.0490 c3         1 8LC      -0.074900
     14 C15         -0.7160    -0.4250    -0.0810 c3         1 8LC      -0.074900
     15 C16         -1.8990     0.5650    -0.0240 c3         1 8LC      -0.072900
     16 C17         -3.2750    -0.1350    -0.0570 c3         1 8LC      -0.094900
     17 C18         -4.4530     0.8560     0.0000 c3         1 8LC       0.102500
     18 N19         -5.7410     0.1650    -0.0320 ns         1 8LC      -0.493400
     19 C20         -6.9620     0.7970     0.0050 c          1 8LC       0.624200
     20 C21         -8.1970    -0.0810    -0.0370 ca         1 8LC      -0.199100
     21 C22         -9.4910     0.4970    -0.0030 ca         1 8LC       0.152100
     22 C23        -10.6450    -0.3170    -0.0420 ca         1 8LC       0.065100
     23 C24        -10.5250    -1.7110    -0.1140 ca         1 8LC      -0.119000
     24 C25         -9.2510    -2.2980    -0.1490 ca         1 8LC      -0.123000
     25 C26         -8.0980    -1.4960    -0.1110 ca         1 8LC      -0.084500
     26 O27         -7.0380     2.0180     0.0690 o          1 8LC      -0.618100
     27 O29         11.7580    -0.0570     0.5740 oh         1 8LC      -0.545600
     28 O30         -9.6480     1.8550     0.0680 oh         1 8LC      -0.546600
     29 O31        -11.8850     0.2560    -0.0080 oh         1 8LC      -0.545600
     30 O1           9.6440    -1.7570     0.6230 oh         1 8LC      -0.546600
     31 H1          10.6080    -1.7980     0.8220 ho         1 8LC       0.509000
     32 H4           7.0160     1.7440    -0.8360 ha         1 8LC       0.112500
     33 H5           8.9500     3.2510    -0.8270 ha         1 8LC       0.119500
     34 H6          11.1990     2.4300    -0.1770 ha         1 8LC       0.123500
     35 H10          5.6930     0.6930    -0.0040 hn         1 8LC       0.317000
     36 H111         4.3350    -1.5990    -1.0540 h1         1 8LC       0.055200
     37 H112         4.3440    -1.6930     0.7250 h1         1 8LC       0.055200
     38 H121         3.2980     0.5840     0.8410 hc         1 8LC       0.043200
     39 H122         3.2920     0.6780    -0.9220 hc         1 8LC       0.043200
     40 H131         1.7670    -1.3170    -1.0210 hc         1 8LC       0.042950
     41 H132         1.7730    -1.4100     0.7410 hc         1 8LC       0.042950
     42 H141         0.7370     0.8760     0.8660 hc         1 8LC       0.039200
     43 H142         0.7310     0.9690    -0.8960 hc         1 8LC       0.039200
     44 H151        -0.7930    -1.0260    -0.9960 hc         1 8LC       0.039200
     45 H152        -0.7870    -1.1200     0.7660 hc         1 8LC       0.039200
     46 H161        -1.8230     1.1670     0.8900 hc         1 8LC       0.042950
     47 H162        -1.8290     1.2600    -0.8710 hc         1 8LC       0.042950
     48 H171        -3.3540    -0.7340    -0.9720 hc         1 8LC       0.043200
     49 H172        -3.3480    -0.8280     0.7910 hc         1 8LC       0.043200
     50 H181        -4.3920     1.4490     0.9230 h1         1 8LC       0.055200
     51 H182        -4.3980     1.5430    -0.8550 h1         1 8LC       0.055200
     52 H19         -5.7470    -0.8450    -0.0840 hn         1 8LC       0.317000
     53 H26         -7.1330    -1.9950    -0.1400 ha         1 8LC       0.112500
     54 H29         12.4060     0.6800     0.5120 ho         1 8LC       0.481500
     55 H30         -8.7300     2.2360     0.0850 ho         1 8LC       0.509000
     56 H24        -11.4150    -2.3360    -0.1440 ha         1 8LC       0.123500
     57 H31        -11.7420     1.2300     0.0420 ho         1 8LC       0.481500
     58 H25         -9.1560    -3.3810    -0.2050 ha         1 8LC       0.119500
@<TRIPOS>BOND
     1     1     2 ar  
     2     1     6 ar  
     3     1    30 1   
     4     2     3 ar  
     5     2     7 1   
     6     3     4 ar  
     7     3    32 1   
     8     4     5 ar  
     9     4    33 1   
    10     5     6 ar  
    11     5    34 1   
    12     6    27 1   
    13     7     8 2   
    14     7     9 1   
    15     9    10 1   
    16     9    35 1   
    17    10    11 1   
    18    10    36 1   
    19    10    37 1   
    20    11    12 1   
    21    11    38 1   
    22    11    39 1   
    23    12    13 1   
    24    12    40 1   
    25    12    41 1   
    26    13    14 1   
    27    13    42 1   
    28    13    43 1   
    29    14    15 1   
    30    14    44 1   
    31    14    45 1   
    32    15    16 1   
    33    15    46 1   
    34    15    47 1   
    35    16    17 1   
    36    16    48 1   
    37    16    49 1   
    38    17    18 1   
    39    17    50 1   
    40    17    51 1   
    41    18    19 1   
    42    18    52 1   
    43    19    20 1   
    44    19    26 2   
    45    20    21 ar  
    46    20    25 ar  
    47    21    22 ar  
    48    21    28 1   
    49    22    23 ar  
    50    22    29 1   
    51    23    24 ar  
    52    23    56 1   
    53    24    25 ar  
    54    24    58 1   
    55    25    53 1   
    56    27    54 1   
    57    28    55 1   
    58    29    57 1   
    59    30    31 1   
@<TRIPOS>SUBSTRUCTURE
     1 8LC         1 TEMP              0 ****  ****    0 ROOT
