@<TRIPOS>MOLECULE
8LD
    9     8     1     0     0
SMALL
bcc


@<TRIPOS>ATOM
      1 OAA         -3.2870    -0.6290    -0.2270 oh         1 8LD      -0.352100
      2 CAC         -2.1470    -0.0070    -0.1750 c1         1 8LD      -0.013400
      3 CAE         -1.0940     0.5540    -0.1950 c1         1 8LD      -0.097900
      4 OAG          0.0280     1.2480    -0.2160 os         1 8LD       0.065800
      5 CAF          1.1530     0.5580    -0.1680 c1         1 8LD      -0.097900
      6 CAD          2.2070    -0.0000    -0.1240 c1         1 8LD      -0.013400
      7 OAB          3.3490    -0.6180    -0.1540 oh         1 8LD      -0.352100
      8 H1          -3.6450    -0.7640     0.6610 ho         1 8LD       0.430500
      9 H2           3.6960    -0.7450     0.7400 ho         1 8LD       0.430500
@<TRIPOS>BOND
     1     1     2 1   
     2     1     8 1   
     3     2     3 3   
     4     3     4 1   
     5     4     5 1   
     6     5     6 3   
     7     6     7 1   
     8     7     9 1   
@<TRIPOS>SUBSTRUCTURE
     1 8LD         1 TEMP              0 ****  ****    0 ROOT
