@<TRIPOS>MOLECULE
8LD
    9     8     1     0     0
SMALL
No Charge or Current Charge


@<TRIPOS>ATOM
      1 OAA         -3.2410    -0.8090    -0.1840 oh         1 8LD      -0.391100
      2 CAC         -2.1420    -0.1120    -0.1020 c1         1 8LD      -0.013400
      3 CAE         -1.0860     0.4770    -0.0640 c1         1 8LD      -0.097900
      4 OAG          0.0270     1.1780    -0.0210 os         1 8LD       0.065800
      5 CAF          1.1430     0.4790    -0.0340 c1         1 8LD      -0.097900
      6 CAD          2.2000    -0.1090    -0.0440 c1         1 8LD      -0.013400
      7 OAB          3.3000    -0.8070    -0.0910 oh         1 8LD      -0.391100
      8 H1          -3.9680    -0.3660     0.3080 ho         1 8LD       0.469500
      9 H2           4.0270    -0.3350     0.3730 ho         1 8LD       0.469500
@<TRIPOS>BOND
     1     1     2 1   
     2     1     8 1   
     3     2     3 3   
     4     3     4 1   
     5     4     5 1   
     6     5     6 3   
     7     6     7 1   
     8     7     9 1   
@<TRIPOS>SUBSTRUCTURE
     1 8LD         1 TEMP              0 ****  ****    0 ROOT
