@<TRIPOS>MOLECULE
8LF
   44    47     1     0     0
SMALL
No Charge or Current Charge


@<TRIPOS>ATOM
      1 CAQ          3.9730     0.1380     0.9150 ca         1 8LF      -0.006000
      2 CAR          3.9730     1.0250     2.0050 ca         1 8LF      -0.134500
      3 CAS          3.3990     2.3040     1.8840 ca         1 8LF      -0.017300
      4 CAT          3.4020     3.2610     3.0650 c3         1 8LF      -0.058800
      5 CAU          2.8280     2.6910     0.6570 ca         1 8LF      -0.134500
      6 CAV          2.8240     1.8100    -0.4380 ca         1 8LF      -0.006000
      7 CAP          3.3970     0.5280    -0.3110 ca         1 8LF      -0.313500
      8 SAM          3.3770    -0.6240    -1.6920 sy         1 8LF       1.140600
      9 OAN          2.8360     0.0210    -2.8930 o          1 8LF      -0.526000
     10 OAO          4.6290    -1.3860    -1.7100 o          1 8LF      -0.526000
     11 NAL          2.2310    -1.7890    -1.2670 nu         1 8LF      -0.690100
     12 CAK          0.9280    -1.6210    -0.7750 ca         1 8LF       0.237000
     13 CAW          0.1590    -0.4780    -1.0630 ca         1 8LF      -0.038000
     14 CAX         -1.1460    -0.3160    -0.5430 ca         1 8LF      -0.123600
     15 CAY         -1.9170     0.9420    -0.8800 c          1 8LF       0.591300
     16 OAZ         -1.4240     1.8130    -1.5880 o          1 8LF      -0.497100
     17 CBA         -3.3080     1.0930    -0.3150 ca         1 8LF      -0.123600
     18 CBB         -4.0620     2.2540    -0.6070 ca         1 8LF      -0.068000
     19 CBC         -5.3580     2.4150    -0.0920 ca         1 8LF      -0.090000
     20 CAA         -5.9170     1.4190     0.7200 ca         1 8LF      -0.101000
     21 CAB         -5.1800     0.2620     1.0180 ca         1 8LF      -0.060000
     22 CAC         -3.8730     0.0860     0.5070 ca         1 8LF      -0.135600
     23 CAD         -3.1030    -1.1680     0.8420 c          1 8LF       0.614300
     24 OAE         -3.5960    -2.0380     1.5550 o          1 8LF      -0.566100
     25 CAF         -1.7050    -1.3300     0.2800 ca         1 8LF      -0.215600
     26 CAG         -0.9330    -2.4850     0.5600 ca         1 8LF       0.131100
     27 OAH         -1.4300    -3.4890     1.3480 oh         1 8LF      -0.565100
     28 CAI          0.3680    -2.6300     0.0390 ca         1 8LF       0.093100
     29 OAJ          1.0770    -3.7680     0.3510 oh         1 8LF      -0.534100
     30 H1           4.4160    -0.8510     1.0290 ha         1 8LF       0.136000
     31 H2           4.4200     0.7150     2.9460 ha         1 8LF       0.118000
     32 H3           4.3050     3.8830     3.0600 hc         1 8LF       0.050033
     33 H4           2.5340     3.9300     3.0390 hc         1 8LF       0.050033
     34 H5           3.3720     2.7200     4.0180 hc         1 8LF       0.050033
     35 H6           2.3850     3.6780     0.5510 ha         1 8LF       0.118000
     36 H7           2.3760     2.1320    -1.3770 ha         1 8LF       0.136000
     37 H8           2.7180    -2.6110    -0.9390 hn         1 8LF       0.338000
     38 H9           0.5730     0.2940    -1.7030 ha         1 8LF       0.171000
     39 H10         -3.6460     3.0390    -1.2360 ha         1 8LF       0.142000
     40 H11         -5.9280     3.3120    -0.3240 ha         1 8LF       0.124000
     41 H12         -6.9210     1.5430     1.1200 ha         1 8LF       0.123000
     42 H13         -5.6320    -0.5000     1.6510 ha         1 8LF       0.138000
     43 H14         -2.3450    -3.2130     1.6210 ho         1 8LF       0.529000
     44 H15          0.4850    -4.3100     0.9220 ho         1 8LF       0.501000
@<TRIPOS>BOND
     1     1     2 ar  
     2     1     7 ar  
     3     1    30 1   
     4     2     3 ar  
     5     2    31 1   
     6     3     4 1   
     7     3     5 ar  
     8     4    32 1   
     9     4    33 1   
    10     4    34 1   
    11     5     6 ar  
    12     5    35 1   
    13     6     7 ar  
    14     6    36 1   
    15     7     8 1   
    16     8     9 2   
    17     8    10 2   
    18     8    11 1   
    19    11    12 1   
    20    11    37 1   
    21    12    13 ar  
    22    12    28 ar  
    23    13    14 ar  
    24    13    38 1   
    25    14    15 1   
    26    14    25 ar  
    27    15    16 2   
    28    15    17 1   
    29    17    18 ar  
    30    17    22 ar  
    31    18    19 ar  
    32    18    39 1   
    33    19    20 ar  
    34    19    40 1   
    35    20    21 ar  
    36    20    41 1   
    37    21    22 ar  
    38    21    42 1   
    39    22    23 1   
    40    23    24 2   
    41    23    25 1   
    42    25    26 ar  
    43    26    27 1   
    44    26    28 ar  
    45    27    43 1   
    46    28    29 1   
    47    29    44 1   
@<TRIPOS>SUBSTRUCTURE
     1 8LF         1 TEMP              0 ****  ****    0 ROOT
