@<TRIPOS>MOLECULE
8LF
   44    47     1     0     0
SMALL
abcg2


@<TRIPOS>ATOM
      1 CAQ          4.4530    -0.0230     0.5160 ca         1 8LF      -0.006000
      2 CAR          4.6760     0.3610     1.8260 ca         1 8LF      -0.134500
      3 CAS          3.8640     1.3100     2.4490 ca         1 8LF      -0.017300
      4 CAT          4.1300     1.7330     3.8620 c3         1 8LF      -0.058800
      5 CAU          2.8200     1.8740     1.7200 ca         1 8LF      -0.134500
      6 CAV          2.5850     1.5100     0.4050 ca         1 8LF      -0.006000
      7 CAP          3.4060     0.5600    -0.1870 ca         1 8LF      -0.313500
      8 SAM          3.0460     0.0020    -1.8200 sy         1 8LF       1.140600
      9 OAN          2.3110     1.0480    -2.5070 o          1 8LF      -0.526000
     10 OAO          4.2370    -0.5750    -2.4150 o          1 8LF      -0.526000
     11 NAL          1.9870    -1.2830    -1.6320 nu         1 8LF      -0.690100
     12 CAK          0.7700    -1.0310    -0.9630 ca         1 8LF       0.237000
     13 CAW         -0.2850    -0.4330    -1.6490 ca         1 8LF      -0.038000
     14 CAX         -1.4780    -0.1760    -1.0070 ca         1 8LF      -0.123600
     15 CAY         -2.5840     0.4420    -1.7640 c          1 8LF       0.591300
     16 OAZ         -2.4590     0.7490    -2.9330 o          1 8LF      -0.497100
     17 CBA         -3.8630     0.6740    -1.0480 ca         1 8LF      -0.123600
     18 CBB         -4.9320     1.2370    -1.7360 ca         1 8LF      -0.068000
     19 CBC         -6.1370     1.4620    -1.0880 ca         1 8LF      -0.090000
     20 CAA         -6.2820     1.1280     0.2530 ca         1 8LF      -0.101000
     21 CAB         -5.2220     0.5660     0.9460 ca         1 8LF      -0.060000
     22 CAC         -4.0110     0.3360     0.3020 ca         1 8LF      -0.135600
     23 CAD         -2.8950    -0.2710     1.0530 c          1 8LF       0.614300
     24 OAE         -3.0240    -0.5600     2.2400 o          1 8LF      -0.566100
     25 CAF         -1.6380    -0.5230     0.3490 ca         1 8LF      -0.215600
     26 CAG         -0.5870    -1.1290     1.0360 ca         1 8LF       0.131100
     27 OAH         -0.6370    -1.4910     2.3130 oh         1 8LF      -0.565100
     28 CAI          0.6310    -1.3820     0.3740 ca         1 8LF       0.093100
     29 OAJ          1.6550    -1.9620     0.9980 oh         1 8LF      -0.534100
     30 H1           5.0900    -0.7650     0.0560 ha         1 8LF       0.136000
     31 H2           5.4940    -0.0870     2.3770 ha         1 8LF       0.118000
     32 H3           4.8460     2.5580     3.8850 hc         1 8LF       0.050033
     33 H4           3.2210     2.0780     4.3540 hc         1 8LF       0.050033
     34 H5           4.5520     0.9200     4.4500 hc         1 8LF       0.050033
     35 H6           2.1770     2.6120     2.1850 ha         1 8LF       0.118000
     36 H7           1.7750     1.9690    -0.1450 ha         1 8LF       0.136000
     37 H8           2.4780    -2.1160    -1.3190 hn         1 8LF       0.338000
     38 H9          -0.1630    -0.1900    -2.6950 ha         1 8LF       0.171000
     39 H10         -4.8220     1.4980    -2.7790 ha         1 8LF       0.142000
     40 H11         -6.9650     1.8990    -1.6300 ha         1 8LF       0.124000
     41 H12         -7.2220     1.3040     0.7560 ha         1 8LF       0.123000
     42 H13         -5.3390     0.3050     1.9890 ha         1 8LF       0.138000
     43 H14         -1.5260    -1.2490     2.6610 ho         1 8LF       0.529000
     44 H15          1.4300    -2.1860     1.9110 ho         1 8LF       0.501000
@<TRIPOS>BOND
     1     1     2 ar  
     2     1     7 ar  
     3     1    30 1   
     4     2     3 ar  
     5     2    31 1   
     6     3     4 1   
     7     3     5 ar  
     8     4    32 1   
     9     4    33 1   
    10     4    34 1   
    11     5     6 ar  
    12     5    35 1   
    13     6     7 ar  
    14     6    36 1   
    15     7     8 1   
    16     8     9 2   
    17     8    10 2   
    18     8    11 1   
    19    11    12 1   
    20    11    37 1   
    21    12    13 ar  
    22    12    28 ar  
    23    13    14 ar  
    24    13    38 1   
    25    14    15 1   
    26    14    25 ar  
    27    15    16 2   
    28    15    17 1   
    29    17    18 ar  
    30    17    22 ar  
    31    18    19 ar  
    32    18    39 1   
    33    19    20 ar  
    34    19    40 1   
    35    20    21 ar  
    36    20    41 1   
    37    21    22 ar  
    38    21    42 1   
    39    22    23 1   
    40    23    24 2   
    41    23    25 1   
    42    25    26 ar  
    43    26    27 1   
    44    26    28 ar  
    45    27    43 1   
    46    28    29 1   
    47    29    44 1   
@<TRIPOS>SUBSTRUCTURE
     1 8LF         1 TEMP              0 ****  ****    0 ROOT
