@<TRIPOS>MOLECULE
8LG
   13    13     1     0     0
SMALL
No Charge or Current Charge


@<TRIPOS>ATOM
      1 C7           1.8990     0.6690     0.0550 ca         1 8LG      -0.175000
      2 C8           1.8650    -0.7340    -0.0330 ca         1 8LG       0.354900
      3 C3           0.6960     1.3950    -0.0010 ca         1 8LG      -0.071000
      4 C1          -0.5050     0.6810    -0.1470 ca         1 8LG       0.002100
      5 C2          -0.4330    -0.7420    -0.2080 ca         1 8LG       0.535300
      6 N5           0.7160    -1.4370    -0.1590 nb         1 8LG      -0.678000
      7 O4          -1.6920     1.3800    -0.2330 oh         1 8LG      -0.539100
      8 O6          -1.5540    -1.5040    -0.2900 oh         1 8LG      -0.639300
      9 H1           2.8510     1.1820     0.1610 ha         1 8LG       0.129000
     10 H3           2.7870    -1.3130     0.0050 h4         1 8LG       0.027100
     11 H4           0.6970     2.4810     0.0560 ha         1 8LG       0.133000
     12 H5          -2.2470     1.0060    -0.9550 ho         1 8LG       0.458000
     13 H2          -2.2800    -0.9610     0.0780 ho         1 8LG       0.463000
@<TRIPOS>BOND
     1     1     2 ar  
     2     1     3 ar  
     3     1     9 1   
     4     2     6 ar  
     5     2    10 1   
     6     3     4 ar  
     7     3    11 1   
     8     4     5 ar  
     9     4     7 1   
    10     5     6 ar  
    11     5     8 1   
    12     7    12 1   
    13     8    13 1   
@<TRIPOS>SUBSTRUCTURE
     1 8LG         1 TEMP              0 ****  ****    0 ROOT
