@<TRIPOS>MOLECULE
8LG
   13    13     1     0     0
SMALL
abcg2


@<TRIPOS>ATOM
      1 C7           1.9050     0.6620     0.0380 ca         1 8LG      -0.175000
      2 C8           1.8580    -0.7070    -0.0250 ca         1 8LG       0.354900
      3 C3           0.7060     1.3710    -0.0310 ca         1 8LG      -0.071000
      4 C1          -0.4900     0.6890    -0.1260 ca         1 8LG       0.002100
      5 C2          -0.4190    -0.7240    -0.1440 ca         1 8LG       0.535300
      6 N5           0.7100    -1.3830    -0.1110 nb         1 8LG      -0.678000
      7 O4          -1.6450     1.3920    -0.1520 oh         1 8LG      -0.539100
      8 O6          -1.5190    -1.5070    -0.1450 oh         1 8LG      -0.639300
      9 H1           2.8500     1.1800     0.1100 ha         1 8LG       0.129000
     10 H3           2.7530    -1.3160     0.0010 h4         1 8LG       0.027100
     11 H4           0.7230     2.4520     0.0080 ha         1 8LG       0.133000
     12 H5          -2.3110     1.0180    -0.7370 ho         1 8LG       0.458000
     13 H2          -2.3200    -1.0240    -0.3580 ho         1 8LG       0.463000
@<TRIPOS>BOND
     1     1     2 ar  
     2     1     3 ar  
     3     1     9 1   
     4     2     6 ar  
     5     2    10 1   
     6     3     4 ar  
     7     3    11 1   
     8     4     5 ar  
     9     4     7 1   
    10     5     6 ar  
    11     5     8 1   
    12     7    12 1   
    13     8    13 1   
@<TRIPOS>SUBSTRUCTURE
     1 8LG         1 TEMP              0 ****  ****    0 ROOT
