@<TRIPOS>MOLECULE
8LI
   26    26     1     0     0
SMALL
bcc


@<TRIPOS>ATOM
      1 S8          -2.4340    -2.2860     0.5100 sh         1 8LI      -0.190400
      2 N13         -0.3740    -0.2590    -0.0430 nc         1 8LI      -0.553300
      3 O14         -0.3240     1.9350    -0.3940 os         1 8LI      -0.404700
      4 O17          2.3750     1.8570    -0.5990 o          1 8LI      -0.471100
      5 C52          4.2630    -0.0850     1.3200 c3         1 8LI      -0.090600
      6 C53          4.0080    -0.4860    -0.1310 c3         1 8LI      -0.051700
      7 C54          4.6360    -1.8430    -0.4320 c3         1 8LI      -0.090600
      8 C56          0.3490     0.7650    -0.2820 cd         1 8LI       0.490600
      9 C57         -1.6600     1.6470    -0.2030 c          1 8LI       0.729800
     10 C58         -1.6640     0.2190     0.0230 cc         1 8LI      -0.145600
     11 C59         -2.7390    -0.5920     0.2760 c2         1 8LI       0.331700
     12 C60          2.5150    -0.5370    -0.4430 c3         1 8LI      -0.165400
     13 OXT         -3.9310    -0.0630     0.3300 oh         1 8LI      -0.439100
     14 HS8         -3.7030    -2.6570     0.7240 hs         1 8LI       0.169800
     15 H52          3.8650     0.9020     1.5530 hc         1 8LI       0.036033
     16 H52A         3.8050    -0.8000     2.0070 hc         1 8LI       0.036033
     17 H52B         5.3320    -0.0630     1.5320 hc         1 8LI       0.036033
     18 H53          4.4740     0.2580    -0.7840 hc         1 8LI       0.063700
     19 H54          4.1860    -2.6290     0.1780 hc         1 8LI       0.036033
     20 H54A         4.5060    -2.1200    -1.4800 hc         1 8LI       0.036033
     21 H54B         5.7070    -1.8330    -0.2210 hc         1 8LI       0.036033
     22 H60          2.3530    -0.9530    -1.4470 hc         1 8LI       0.078200
     23 H60A         2.0000    -1.2240     0.2330 hc         1 8LI       0.078200
     24 HXT         -4.6360    -0.6970     0.5180 ho         1 8LI       0.447000
     25 O18         -2.5040     2.5000    -0.2450 o          1 8LI      -0.524500
     26 C55          1.8220     0.7930    -0.4440 c          1 8LI       0.521800
@<TRIPOS>BOND
     1     1    11 1   
     2     1    14 1   
     3     2     8 2   
     4     2    10 1   
     5     3     8 1   
     6     3     9 1   
     7     4    26 2   
     8     5     6 1   
     9     5    15 1   
    10     5    16 1   
    11     5    17 1   
    12     6     7 1   
    13     6    12 1   
    14     6    18 1   
    15     7    19 1   
    16     7    20 1   
    17     7    21 1   
    18     8    26 1   
    19     9    10 1   
    20     9    25 2   
    21    10    11 2   
    22    11    13 1   
    23    12    22 1   
    24    12    23 1   
    25    12    26 1   
    26    13    24 1   
@<TRIPOS>SUBSTRUCTURE
     1 8LI         1 TEMP              0 ****  ****    0 ROOT
