@<TRIPOS>MOLECULE
8LI
   26    26     1     0     0
SMALL
No Charge or Current Charge


@<TRIPOS>ATOM
      1 S8          -2.1950    -2.3060     0.8870 sh         1 8LI      -0.190400
      2 N13         -0.0970    -0.2340    -0.2610 nc         1 8LI      -0.553300
      3 O14         -0.2120     2.0230    -0.6810 os         1 8LI      -0.404700
      4 O17          2.4950     1.9470    -1.5950 o          1 8LI      -0.471100
      5 C52          3.0470    -0.5200     1.3510 c3         1 8LI      -0.090600
      6 C53          3.7780    -0.5040    -0.0130 c3         1 8LI      -0.051700
      7 C54          4.7020    -1.7340    -0.1590 c3         1 8LI      -0.090600
      8 C56          0.5400     0.8620    -0.7040 cd         1 8LI       0.490600
      9 C57         -1.4220     1.6630    -0.1860 c          1 8LI       0.654300
     10 C58         -1.3380     0.2290     0.0760 cc         1 8LI      -0.145600
     11 C59         -2.3380    -0.5490     0.5850 c2         1 8LI       0.331700
     12 C60          2.8000    -0.3970    -1.2170 c3         1 8LI      -0.165400
     13 OXT         -3.5300    -0.0100     0.8840 oh         1 8LI      -0.478100
     14 HS8         -2.8300    -2.3170     2.0800 hs         1 8LI       0.169800
     15 H52          2.4820     0.4050     1.5110 hc         1 8LI       0.036033
     16 H52A         2.3510    -1.3660     1.4120 hc         1 8LI       0.036033
     17 H52B         3.7670    -0.6130     2.1730 hc         1 8LI       0.036033
     18 H53          4.4240     0.3840    -0.0270 hc         1 8LI       0.063700
     19 H54          4.1200    -2.6640    -0.1500 hc         1 8LI       0.036033
     20 H54A         5.2640    -1.6900    -1.1000 hc         1 8LI       0.036033
     21 H54B         5.4260    -1.7750     0.6640 hc         1 8LI       0.036033
     22 H60          3.3870    -0.4130    -2.1430 hc         1 8LI       0.078200
     23 H60A         2.1350    -1.2670    -1.1920 hc         1 8LI       0.078200
     24 HXT         -4.1440    -0.7470     1.0790 ho         1 8LI       0.486000
     25 O18         -2.3560     2.4340    -0.0180 o          1 8LI      -0.449000
     26 C55          1.9690     0.9070    -1.2000 c          1 8LI       0.521800
@<TRIPOS>BOND
     1     1    11 1   
     2     1    14 1   
     3     2     8 2   
     4     2    10 1   
     5     3     8 1   
     6     3     9 1   
     7     4    26 2   
     8     5     6 1   
     9     5    15 1   
    10     5    16 1   
    11     5    17 1   
    12     6     7 1   
    13     6    12 1   
    14     6    18 1   
    15     7    19 1   
    16     7    20 1   
    17     7    21 1   
    18     8    26 1   
    19     9    10 1   
    20     9    25 2   
    21    10    11 2   
    22    11    13 1   
    23    12    22 1   
    24    12    23 1   
    25    12    26 1   
    26    13    24 1   
@<TRIPOS>SUBSTRUCTURE
     1 8LI         1 TEMP              0 ****  ****    0 ROOT
