@<TRIPOS>MOLECULE
8LJ
   14    14     1     0     0
SMALL
No Charge or Current Charge


@<TRIPOS>ATOM
      1 C          -22.7760     9.8630   -13.6070 c          1 8LJ       0.706000
      2 N          -22.6390     7.9530   -15.4440 nu         1 8LJ      -0.754200
      3 O          -22.3350    10.3660   -12.5810 o          1 8LJ      -0.732500
      4 CA         -21.9540     8.7000   -14.3040 c5         1 8LJ       0.016500
      5 CB         -20.6660     9.2960   -14.9860 c5         1 8LJ      -0.020200
      6 CG         -20.6590     8.6500   -16.3430 c2         1 8LJ      -0.337200
      7 CD         -21.7730     7.9640   -16.5250 c2         1 8LJ      -0.041000
      8 O1         -23.8680    10.1890   -14.0590 o          1 8LJ      -0.732500
      9 H5         -21.6600     7.9960   -13.5120 h1         1 8LJ       0.046700
     10 H2         -19.7600     9.0550   -14.4170 hc         1 8LJ       0.034200
     11 H3         -19.8750     8.7610   -17.0950 ha         1 8LJ       0.163000
     12 H4         -22.0570     7.4250   -17.4360 h4         1 8LJ       0.165000
     13 H7         -20.7110    10.3870   -15.0810 hc         1 8LJ       0.034200
     14 H6         -23.6370     8.1150   -15.6230 hn         1 8LJ       0.450000
@<TRIPOS>BOND
     1     1     3 1   
     2     1     4 1   
     3     1     8 1   
     4     2     4 1   
     5     2     7 1   
     6     2    14 1   
     7     4     5 1   
     8     4     9 1   
     9     5     6 1   
    10     5    10 1   
    11     5    13 1   
    12     6     7 2   
    13     6    11 1   
    14     7    12 1   
@<TRIPOS>SUBSTRUCTURE
     1 8LJ         1 TEMP              0 ****  ****    0 ROOT
