@<TRIPOS>MOLECULE
8LJ
   14    14     1     0     0
SMALL
abcg2


@<TRIPOS>ATOM
      1 C          -22.8320     9.8770   -13.9440 c          1 8LJ       0.706000
      2 N          -22.4610     7.7840   -15.2800 nu         1 8LJ      -0.754200
      3 O          -22.3210    10.8050   -13.2890 o          1 8LJ      -0.732500
      4 CA         -21.8980     8.6770   -14.2630 c5         1 8LJ       0.016500
      5 CB         -20.5430     9.1090   -14.8600 c5         1 8LJ      -0.020200
      6 CG         -20.7770     8.9050   -16.3320 c2         1 8LJ      -0.337200
      7 CD         -21.8720     8.1600   -16.4880 c2         1 8LJ      -0.041000
      8 O1         -24.0150     9.7870   -14.3280 o          1 8LJ      -0.732500
      9 H5         -21.7510     8.1320   -13.3240 h1         1 8LJ       0.046700
     10 H2         -19.7250     8.4730   -14.5000 hc         1 8LJ       0.034200
     11 H3         -20.1160     9.2330   -17.1210 ha         1 8LJ       0.163000
     12 H4         -22.3000     7.8050   -17.4170 h4         1 8LJ       0.165000
     13 H7         -20.2880    10.1310   -14.5770 hc         1 8LJ       0.034200
     14 H6         -23.4720     7.8430   -15.2890 hn         1 8LJ       0.450000
@<TRIPOS>BOND
     1     1     3 1   
     2     1     4 1   
     3     1     8 1   
     4     2     4 1   
     5     2     7 1   
     6     2    14 1   
     7     4     5 1   
     8     4     9 1   
     9     5     6 1   
    10     5    10 1   
    11     5    13 1   
    12     6     7 2   
    13     6    11 1   
    14     7    12 1   
@<TRIPOS>SUBSTRUCTURE
     1 8LJ         1 TEMP              0 ****  ****    0 ROOT
