@<TRIPOS>MOLECULE
8LK
   34    36     1     0     0
SMALL
abcg2


@<TRIPOS>ATOM
      1 O5          52.9600   -50.0080   -18.9840 oh         1 8LK      -0.730000
      2 C5          52.3670   -49.3640   -17.8810 c3         1 8LK       0.147600
      3 C4          51.6360   -48.1170   -18.3300 c5         1 8LK       0.133300
      4 O4          52.5530   -47.1380   -18.8120 os         1 8LK      -0.460000
      5 C3          50.6080   -48.3320   -19.4580 c5         1 8LK       0.148300
      6 O3          49.5010   -47.4680   -19.3290 oh         1 8LK      -0.708000
      7 C2          51.3850   -47.9030   -20.6890 c5         1 8LK      -0.117400
      8 C1          52.2580   -46.7820   -20.1380 c5         1 8LK       0.318700
      9 N1          53.5130   -46.5930   -20.8630 n          1 8LK      -0.299000
     10 C9          53.6990   -45.4030   -21.6100 c          1 8LK       0.704400
     11 O2          52.7950   -44.5770   -21.6590 o          1 8LK      -0.550000
     12 N3          54.8790   -45.2310   -22.2460 nc         1 8LK      -0.437400
     13 C8          55.7710   -46.1820   -22.1450 cd         1 8LK       0.114000
     14 C7          55.6320   -47.4060   -21.4250 cd         1 8LK      -0.253000
     15 C6          54.4500   -47.5650   -20.7780 cc         1 8LK       0.061600
     16 C14         56.8580   -48.1380   -21.5920 cd         1 8LK      -0.138000
     17 C15         57.6630   -47.3730   -22.3690 cc         1 8LK      -0.101300
     18 C16         59.0400   -47.6200   -22.8580 c3         1 8LK      -0.037800
     19 N17         56.9990   -46.1930   -22.6980 na         1 8LK      -0.178000
     20 H1          53.4730   -50.7560   -18.6640 ho         1 8LK       0.511000
     21 H2          51.6360   -50.0110   -17.3790 h1         1 8LK       0.033200
     22 H3          53.1120   -49.0830   -17.1270 h1         1 8LK       0.033200
     23 H4          51.1310   -47.7180   -17.4420 h1         1 8LK       0.067700
     24 H5          50.2890   -49.3790   -19.5130 h1         1 8LK       0.059700
     25 H6          49.0350   -47.6840   -18.5160 ho         1 8LK       0.505000
     26 H7          50.7420   -47.5660   -21.5000 hc         1 8LK       0.082700
     27 H8          51.9900   -48.7300   -21.0610 hc         1 8LK       0.082700
     28 H9          51.7380   -45.8260   -20.1740 h2         1 8LK       0.121700
     29 H13         57.1030   -49.1050   -21.1840 ha         1 8LK       0.138000
     30 H14         59.3980   -48.5870   -22.5090 hc         1 8LK       0.051700
     31 H15         59.0830   -47.6150   -23.9480 hc         1 8LK       0.051700
     32 H16         59.7310   -46.8530   -22.5020 hc         1 8LK       0.051700
     33 H17         57.3800   -45.4530   -23.2680 hn         1 8LK       0.362000
     34 H10         54.2050   -48.4370   -20.1850 h4         1 8LK       0.229000
@<TRIPOS>BOND
     1     1     2 1   
     2     1    20 1   
     3     2     3 1   
     4     2    21 1   
     5     2    22 1   
     6     3     4 1   
     7     3     5 1   
     8     3    23 1   
     9     4     8 1   
    10     5     6 1   
    11     5     7 1   
    12     5    24 1   
    13     6    25 1   
    14     7     8 1   
    15     7    26 1   
    16     7    27 1   
    17     8     9 1   
    18     8    28 1   
    19     9    10 1   
    20     9    15 1   
    21    10    11 2   
    22    10    12 1   
    23    12    13 2   
    24    13    14 1   
    25    13    19 1   
    26    14    15 2   
    27    14    16 1   
    28    15    34 1   
    29    16    17 2   
    30    16    29 1   
    31    17    18 1   
    32    17    19 1   
    33    18    30 1   
    34    18    31 1   
    35    18    32 1   
    36    19    33 1   
@<TRIPOS>SUBSTRUCTURE
     1 8LK         1 TEMP              0 ****  ****    0 ROOT
