@<TRIPOS>MOLECULE
8LK
   34    36     1     0     0
SMALL
No Charge or Current Charge


@<TRIPOS>ATOM
      1 O5          52.8260   -50.2210   -18.6710 oh         1 8LK      -0.730000
      2 C5          52.1360   -49.4360   -17.6780 c3         1 8LK       0.147600
      3 C4          51.5180   -48.1270   -18.2620 c5         1 8LK       0.133300
      4 O4          52.5810   -47.2160   -18.6590 os         1 8LK      -0.460000
      5 C3          50.5950   -48.3140   -19.5270 c5         1 8LK       0.148300
      6 O3          49.4920   -47.3950   -19.5470 oh         1 8LK      -0.708000
      7 C2          51.5820   -47.9820   -20.6730 c5         1 8LK      -0.117400
      8 C1          52.3250   -46.7960   -20.0120 c5         1 8LK       0.318700
      9 N1          53.5950   -46.5580   -20.7380 n          1 8LK      -0.299000
     10 C9          53.7310   -45.3570   -21.4990 c          1 8LK       0.704400
     11 O2          52.8490   -44.5100   -21.5260 o          1 8LK      -0.550000
     12 N3          54.9030   -45.1640   -22.2280 nc         1 8LK      -0.437400
     13 C8          55.8160   -46.1030   -22.1850 cd         1 8LK       0.114000
     14 C7          55.7220   -47.2740   -21.4780 cd         1 8LK      -0.253000
     15 C6          54.6040   -47.5400   -20.7310 cc         1 8LK       0.061600
     16 C14         56.9080   -48.0210   -21.6870 cd         1 8LK      -0.138000
     17 C15         57.7320   -47.2790   -22.5410 cc         1 8LK      -0.101300
     18 C16         59.0960   -47.6090   -23.0790 c3         1 8LK      -0.037800
     19 N17         57.0200   -46.0940   -22.8300 na         1 8LK      -0.178000
     20 H1          53.1930   -51.0110   -18.2090 ho         1 8LK       0.511000
     21 H2          51.3230   -50.0270   -17.2350 h1         1 8LK       0.033200
     22 H3          52.8200   -49.1630   -16.8630 h1         1 8LK       0.033200
     23 H4          50.9510   -47.6510   -17.4500 h1         1 8LK       0.067700
     24 H5          50.2270   -49.3470   -19.6110 h1         1 8LK       0.059700
     25 H6          48.8030   -47.7510   -18.9380 ho         1 8LK       0.505000
     26 H7          51.0780   -47.6960   -21.6020 hc         1 8LK       0.082700
     27 H8          52.2340   -48.8310   -20.8990 hc         1 8LK       0.082700
     28 H9          51.7090   -45.8870   -20.0180 h2         1 8LK       0.121700
     29 H13         57.1420   -48.9940   -21.2620 ha         1 8LK       0.138000
     30 H14         59.4370   -48.5850   -22.7130 hc         1 8LK       0.051700
     31 H15         59.0870   -47.6450   -24.1750 hc         1 8LK       0.051700
     32 H16         59.8310   -46.8570   -22.7690 hc         1 8LK       0.051700
     33 H17         57.3420   -45.3400   -23.4250 hn         1 8LK       0.362000
     34 H10         54.4060   -48.4140   -20.1160 h4         1 8LK       0.229000
@<TRIPOS>BOND
     1     1     2 1   
     2     1    20 1   
     3     2     3 1   
     4     2    21 1   
     5     2    22 1   
     6     3     4 1   
     7     3     5 1   
     8     3    23 1   
     9     4     8 1   
    10     5     6 1   
    11     5     7 1   
    12     5    24 1   
    13     6    25 1   
    14     7     8 1   
    15     7    26 1   
    16     7    27 1   
    17     8     9 1   
    18     8    28 1   
    19     9    10 1   
    20     9    15 1   
    21    10    11 2   
    22    10    12 1   
    23    12    13 2   
    24    13    14 1   
    25    13    19 1   
    26    14    15 2   
    27    14    16 1   
    28    15    34 1   
    29    16    17 2   
    30    16    29 1   
    31    17    18 1   
    32    17    19 1   
    33    18    30 1   
    34    18    31 1   
    35    18    32 1   
    36    19    33 1   
@<TRIPOS>SUBSTRUCTURE
     1 8LK         1 TEMP              0 ****  ****    0 ROOT
