@<TRIPOS>MOLECULE
8LL
   63    64     1     0     0
SMALL
No Charge or Current Charge


@<TRIPOS>ATOM
      1 C10          1.7040     2.2530    -0.8920 ca         1 8LL      -0.027000
      2 C13         -1.6890     4.0030     0.5950 c3         1 8LL       0.168600
      3 C21         -0.8280    -4.0000    -0.7770 c3         1 8LL       0.163600
      4 C24         -3.8230    -0.2170    -0.4130 c3         1 8LL      -0.081400
      5 C26         -5.2780     1.9120    -0.3510 c3         1 8LL      -0.077400
      6 C01         -0.3380     1.8850     0.4270 ca         1 8LL       0.290000
      7 C02         -1.0160     1.1670     1.4240 ca         1 8LL      -0.171000
      8 C03         -0.4110     0.0750     2.0510 ca         1 8LL      -0.057000
      9 C04          0.8850    -0.3140     1.6910 ca         1 8LL      -0.147000
     10 C05          1.6130     0.3910     0.7000 ca         1 8LL       0.061000
     11 C06          0.9880     1.5090     0.0740 ca         1 8LL      -0.063000
     12 C07          2.9370     0.0180     0.3110 ca         1 8LL      -0.301500
     13 C08          3.6110     0.7740    -0.6720 ca         1 8LL       0.013000
     14 C09          3.0020     1.8850    -1.2600 ca         1 8LL      -0.154000
     15 N11         -1.0220     2.9560    -0.2060 nh         1 8LL      -0.777400
     16 C12         -1.4140     2.8510    -1.6290 c3         1 8LL       0.168600
     17 S14          3.8270    -1.4090     0.9800 sy         1 8LL       1.145600
     18 O15          5.1230    -1.5690     0.3140 o          1 8LL      -0.538000
     19 O16          3.7160    -1.4480     2.4390 o          1 8LL      -0.538000
     20 N17          2.8780    -2.6670     0.4420 n7         1 8LL      -0.863300
     21 C18          2.7330    -2.8350    -1.0190 c3         1 8LL       0.200800
     22 C19          1.5250    -3.7520    -1.3250 c3         1 8LL       0.152600
     23 O20          0.3810    -3.2330    -0.6110 os         1 8LL      -0.464000
     24 C23         -3.4060    -1.4980     0.3320 c3         1 8LL       0.165600
     25 C25         -4.8670     0.6100     0.3700 c3         1 8LL      -0.074400
     26 H1           1.2680     3.1300    -1.3600 ha         1 8LL       0.130000
     27 H2          -1.1440     4.1730     1.5330 h1         1 8LL       0.037033
     28 H3          -1.7140     4.9520     0.0430 h1         1 8LL       0.037033
     29 H4          -2.7190     3.7090     0.8360 h1         1 8LL       0.037033
     30 H5          -1.1590    -3.9970    -1.8240 h1         1 8LL       0.033700
     31 H6          -0.6600    -5.0420    -0.4750 h1         1 8LL       0.033700
     32 H8          -2.9340     0.3980    -0.5960 hc         1 8LL       0.053200
     33 H9          -4.2340    -0.4890    -1.3930 hc         1 8LL       0.053200
     34 H10         -4.3850     2.5250    -0.5190 hc         1 8LL       0.038200
     35 H11         -5.6890     1.6660    -1.3370 hc         1 8LL       0.038200
     36 H13         -2.0270     1.4470     1.7020 ha         1 8LL       0.116000
     37 H14         -0.9510    -0.4770     2.8180 ha         1 8LL       0.113000
     38 H15          1.2960    -1.1650     2.2190 ha         1 8LL       0.123000
     39 H16          4.6200     0.5120    -0.9880 ha         1 8LL       0.143000
     40 H17          3.5380     2.4660    -2.0070 ha         1 8LL       0.120000
     41 H18         -0.9530     3.6580    -2.2140 h1         1 8LL       0.037033
     42 H19         -1.0870     1.8910    -2.0510 h1         1 8LL       0.037033
     43 H20         -2.5040     2.9160    -1.7400 h1         1 8LL       0.037033
     44 H21          2.5500    -1.8730    -1.5170 h1         1 8LL       0.063700
     45 H22          3.6410    -3.2680    -1.4600 h1         1 8LL       0.063700
     46 H23          1.3410    -3.7680    -2.4070 h1         1 8LL       0.036200
     47 H24          1.7550    -4.7740    -0.9960 h1         1 8LL       0.036200
     48 H25         -3.0080    -1.2350     1.3210 h1         1 8LL       0.018700
     49 H26         -4.2830    -2.1440     0.4710 h1         1 8LL       0.018700
     50 H27         -5.7600    -0.0060     0.5370 hc         1 8LL       0.036700
     51 H28         -4.4610     0.8590     1.3580 hc         1 8LL       0.036700
     52 C22         -1.9330    -3.3990     0.1240 c3         1 8LL       0.163600
     53 O1          -2.4050    -2.1650    -0.4530 os         1 8LL      -0.450000
     54 C27         -6.3110     2.7410     0.4410 c3         1 8LL      -0.075400
     55 C28         -6.7040     4.0510    -0.2700 c3         1 8LL      -0.089100
     56 H7           1.9600    -2.3670     0.7630 hn         1 8LL       0.494000
     57 H12         -2.7580    -4.1200     0.1990 h1         1 8LL       0.030200
     58 H29         -1.5320    -3.2350     1.1330 h1         1 8LL       0.030200
     59 H30         -7.2130     2.1390     0.6050 hc         1 8LL       0.037200
     60 H31         -5.9030     2.9830     1.4300 hc         1 8LL       0.037200
     61 H32         -7.1480     3.8410    -1.2510 hc         1 8LL       0.032367
     62 H33         -7.4370     4.6050     0.3270 hc         1 8LL       0.032367
     63 H34         -5.8260     4.6910    -0.4160 hc         1 8LL       0.032367
@<TRIPOS>BOND
     1     1    11 ar  
     2     1    14 ar  
     3     1    26 1   
     4     2    15 1   
     5     2    27 1   
     6     2    28 1   
     7     2    29 1   
     8     3    23 1   
     9     3    30 1   
    10     3    31 1   
    11     3    52 1   
    12     4    24 1   
    13     4    25 1   
    14     4    32 1   
    15     4    33 1   
    16     5    25 1   
    17     5    34 1   
    18     5    35 1   
    19     5    54 1   
    20     6     7 ar  
    21     6    11 ar  
    22     6    15 1   
    23     7     8 ar  
    24     7    36 1   
    25     8     9 ar  
    26     8    37 1   
    27     9    10 ar  
    28     9    38 1   
    29    10    11 ar  
    30    10    12 ar  
    31    12    13 ar  
    32    12    17 1   
    33    13    14 ar  
    34    13    39 1   
    35    14    40 1   
    36    15    16 1   
    37    16    41 1   
    38    16    42 1   
    39    16    43 1   
    40    17    18 2   
    41    17    19 2   
    42    17    20 1   
    43    20    21 1   
    44    20    56 1   
    45    21    22 1   
    46    21    44 1   
    47    21    45 1   
    48    22    23 1   
    49    22    46 1   
    50    22    47 1   
    51    24    48 1   
    52    24    49 1   
    53    24    53 1   
    54    25    50 1   
    55    25    51 1   
    56    52    53 1   
    57    52    57 1   
    58    52    58 1   
    59    54    55 1   
    60    54    59 1   
    61    54    60 1   
    62    55    61 1   
    63    55    62 1   
    64    55    63 1   
@<TRIPOS>SUBSTRUCTURE
     1 8LL         1 TEMP              0 ****  ****    0 ROOT
