@<TRIPOS>MOLECULE
8LL
   63    64     1     0     0
SMALL
abcg2


@<TRIPOS>ATOM
      1 C10          1.8210     2.5320    -0.6780 ca         1 8LL      -0.027000
      2 C13         -1.8850     3.9210     0.6940 c3         1 8LL       0.168600
      3 C21         -0.9450    -4.1830    -0.6080 c3         1 8LL       0.163600
      4 C24         -3.8360    -0.4360    -0.4810 c3         1 8LL      -0.081400
      5 C26         -5.1580     1.7250    -0.4780 c3         1 8LL      -0.077400
      6 C01         -0.2830     2.1110     0.5530 ca         1 8LL       0.290000
      7 C02         -0.9500     1.3720     1.5020 ca         1 8LL      -0.171000
      8 C03         -0.3590     0.2330     2.0700 ca         1 8LL      -0.057000
      9 C04          0.8770    -0.1990     1.6790 ca         1 8LL      -0.147000
     10 C05          1.6100     0.5260     0.7100 ca         1 8LL       0.061000
     11 C06          1.0430     1.7200     0.1780 ca         1 8LL      -0.063000
     12 C07          2.8990     0.1440     0.2290 ca         1 8LL      -0.301500
     13 C08          3.6020     0.9250    -0.6490 ca         1 8LL       0.013000
     14 C09          3.0700     2.1510    -1.0790 ca         1 8LL      -0.154000
     15 N11         -0.8450     3.2460    -0.0510 nh         1 8LL      -0.777400
     16 C12         -1.2180     3.0650    -1.4470 c3         1 8LL       0.168600
     17 S14          3.6530    -1.3950     0.7170 sy         1 8LL       1.145600
     18 O15          4.8780    -1.5450    -0.0510 o          1 8LL      -0.538000
     19 O16          3.7140    -1.4620     2.1690 o          1 8LL      -0.538000
     20 N17          2.6420    -2.5940     0.2310 n7         1 8LL      -0.863300
     21 C18          2.3560    -2.7360    -1.1960 c3         1 8LL       0.200800
     22 C19          1.2520    -3.7570    -1.3620 c3         1 8LL       0.152600
     23 O20          0.1260    -3.2740    -0.6780 os         1 8LL      -0.464000
     24 C23         -3.4170    -1.6550     0.3160 c3         1 8LL       0.165600
     25 C25         -4.7210     0.5070     0.3230 c3         1 8LL      -0.074400
     26 H1           1.4250     3.4840    -1.0020 ha         1 8LL       0.130000
     27 H2          -1.5550     4.1180     1.7130 h1         1 8LL       0.037033
     28 H3          -2.0970     4.8760     0.2150 h1         1 8LL       0.037033
     29 H4          -2.8320     3.3650     0.7440 h1         1 8LL       0.037033
     30 H5          -1.3080    -4.4410    -1.6120 h1         1 8LL       0.033700
     31 H6          -0.6380    -5.1200    -0.1260 h1         1 8LL       0.033700
     32 H8          -2.9380     0.0980    -0.8100 hc         1 8LL       0.053200
     33 H9          -4.3650    -0.7530    -1.3850 hc         1 8LL       0.053200
     34 H10         -4.2730     2.2280    -0.8840 hc         1 8LL       0.038200
     35 H11         -5.7400     1.4010    -1.3470 hc         1 8LL       0.038200
     36 H13         -1.9470     1.6500     1.8150 ha         1 8LL       0.116000
     37 H14         -0.9070    -0.3250     2.8180 ha         1 8LL       0.113000
     38 H15          1.2900    -1.0690     2.1650 ha         1 8LL       0.123000
     39 H16          4.5740     0.6170    -1.0070 ha         1 8LL       0.143000
     40 H17          3.6550     2.7850    -1.7300 ha         1 8LL       0.120000
     41 H18         -1.4540     4.0330    -1.8900 h1         1 8LL       0.037033
     42 H19         -0.4080     2.6240    -2.0240 h1         1 8LL       0.037033
     43 H20         -2.0950     2.4160    -1.5580 h1         1 8LL       0.037033
     44 H21          2.0460    -1.7890    -1.6520 h1         1 8LL       0.063700
     45 H22          3.2470    -3.0860    -1.7150 h1         1 8LL       0.063700
     46 H23          1.0510    -3.8920    -2.4330 h1         1 8LL       0.036200
     47 H24          1.5730    -4.7280    -0.9620 h1         1 8LL       0.036200
     48 H25         -2.8970    -1.3400     1.2330 h1         1 8LL       0.018700
     49 H26         -4.3060    -2.2190     0.6360 h1         1 8LL       0.018700
     50 H27         -5.6060    -0.0280     0.6830 hc         1 8LL       0.036700
     51 H28         -4.1830     0.8350     1.2200 hc         1 8LL       0.036700
     52 C22         -2.0530    -3.5660     0.2070 c3         1 8LL       0.163600
     53 O1          -2.5710    -2.4540    -0.4740 os         1 8LL      -0.450000
     54 C27         -5.9710     2.7240     0.3350 c3         1 8LL      -0.075400
     55 C28         -6.3620     3.9560    -0.4700 c3         1 8LL      -0.089100
     56 H7           1.8080    -2.6540     0.8060 hn         1 8LL       0.494000
     57 H12         -2.8260    -4.3270     0.3790 h1         1 8LL       0.030200
     58 H29         -1.6610    -3.2770     1.1930 h1         1 8LL       0.030200
     59 H30         -6.8700     2.2340     0.7210 hc         1 8LL       0.037200
     60 H31         -5.3920     3.0290     1.2130 hc         1 8LL       0.037200
     61 H32         -6.9700     3.6850    -1.3360 hc         1 8LL       0.032367
     62 H33         -6.9370     4.6630     0.1290 hc         1 8LL       0.032367
     63 H34         -5.4790     4.4780    -0.8430 hc         1 8LL       0.032367
@<TRIPOS>BOND
     1     1    11 ar  
     2     1    14 ar  
     3     1    26 1   
     4     2    15 1   
     5     2    27 1   
     6     2    28 1   
     7     2    29 1   
     8     3    23 1   
     9     3    30 1   
    10     3    31 1   
    11     3    52 1   
    12     4    24 1   
    13     4    25 1   
    14     4    32 1   
    15     4    33 1   
    16     5    25 1   
    17     5    34 1   
    18     5    35 1   
    19     5    54 1   
    20     6     7 ar  
    21     6    11 ar  
    22     6    15 1   
    23     7     8 ar  
    24     7    36 1   
    25     8     9 ar  
    26     8    37 1   
    27     9    10 ar  
    28     9    38 1   
    29    10    11 ar  
    30    10    12 ar  
    31    12    13 ar  
    32    12    17 1   
    33    13    14 ar  
    34    13    39 1   
    35    14    40 1   
    36    15    16 1   
    37    16    41 1   
    38    16    42 1   
    39    16    43 1   
    40    17    18 2   
    41    17    19 2   
    42    17    20 1   
    43    20    21 1   
    44    20    56 1   
    45    21    22 1   
    46    21    44 1   
    47    21    45 1   
    48    22    23 1   
    49    22    46 1   
    50    22    47 1   
    51    24    48 1   
    52    24    49 1   
    53    24    53 1   
    54    25    50 1   
    55    25    51 1   
    56    52    53 1   
    57    52    57 1   
    58    52    58 1   
    59    54    55 1   
    60    54    59 1   
    61    54    60 1   
    62    55    61 1   
    63    55    62 1   
    64    55    63 1   
@<TRIPOS>SUBSTRUCTURE
     1 8LL         1 TEMP              0 ****  ****    0 ROOT
