@<TRIPOS>MOLECULE
8LN
   50    54     1     0     0
SMALL
No Charge or Current Charge


@<TRIPOS>ATOM
      1 C1          -2.6160     3.7600     0.8540 c3         1 8LN      -0.121400
      2 C2          -3.0290     0.1690     0.0560 cc         1 8LN      -0.168000
      3 C3          -2.2150     1.2490     0.2210 cd         1 8LN       0.166000
      4 C4          -3.0510     2.3460     0.5690 cd         1 8LN       0.227300
      5 N1          -4.3270     2.0120     0.6280 nc         1 8LN      -0.511800
      6 N2          -4.3090     0.6650     0.3100 na         1 8LN       0.135800
      7 C5          -5.5520    -0.1430     0.2550 c6         1 8LN       0.097300
      8 C6          -5.7980    -0.7120    -1.1670 c6         1 8LN      -0.091900
      9 C7          -7.0800    -1.5750    -1.1940 c6         1 8LN       0.160300
     10 N3          -7.0160    -2.6510    -0.1750 n7         1 8LN      -0.865400
     11 C8          -6.8210    -2.1380     1.2020 c6         1 8LN       0.160300
     12 C9          -5.5310    -1.2910     1.2990 c6         1 8LN      -0.091900
     13 C10          0.1440     0.3740    -0.2370 ca         1 8LN       0.393900
     14 N5          -0.2260    -0.8930    -0.4920 nb         1 8LN      -0.235000
     15 C11          0.7590    -1.7550    -0.8090 ca         1 8LN       0.167900
     16 C12          2.1040    -1.3500    -0.8610 ca         1 8LN      -0.077000
     17 C13          2.3900     0.0010    -0.5560 ca         1 8LN       0.281800
     18 N6           1.3940     0.8640    -0.2610 nb         1 8LN      -0.241000
     19 C14          3.7470     0.5450    -0.5860 cc         1 8LN      -0.286900
     20 C15          4.0860     1.7490    -1.1720 cd         1 8LN       0.028600
     21 N7           5.4290     2.0440    -0.9300 nd         1 8LN      -0.296600
     22 C16          5.8810     1.0680    -0.1580 cc         1 8LN      -0.065000
     23 N8           4.8960     0.1430     0.0310 na         1 8LN       0.157100
     24 C17          4.9460    -0.8590     1.0060 cc         1 8LN      -0.099000
     25 C18          6.2050    -1.0340     1.5830 cd         1 8LN      -0.146000
     26 C19          7.3330    -0.1760     1.2940 cd         1 8LN      -0.098000
     27 C20          7.1560     0.8930     0.4460 cc         1 8LN      -0.078000
     28 Cl           3.3430    -2.5040    -1.3690 cl         1 8LN      -0.170000
     29 H11C        -2.1090     4.1940    -0.0160 hc         1 8LN       0.047700
     30 H12C        -3.4690     4.4050     1.0970 hc         1 8LN       0.047700
     31 H13C        -1.9230     3.7910     1.7020 hc         1 8LN       0.047700
     32 H2          -2.8290    -0.8590    -0.2070 h4         1 8LN       0.181000
     33 H4          -0.4450     2.2320     0.2610 hn         1 8LN       0.521000
     34 H5          -6.3910     0.5220     0.5020 h1         1 8LN       0.081700
     35 H61C        -5.8900     0.1090    -1.8910 hc         1 8LN       0.060950
     36 H62C        -4.9440    -1.3230    -1.4880 hc         1 8LN       0.060950
     37 H91C        -4.6600    -1.9390     1.1370 hc         1 8LN       0.060950
     38 H92C        -5.4350    -0.8780     2.3120 hc         1 8LN       0.060950
     39 H71C        -7.9570    -0.9390    -1.0010 h1         1 8LN       0.034950
     40 H72C        -7.2050    -2.0200    -2.1920 h1         1 8LN       0.034950
     41 H3          -7.8920    -3.1910    -0.2070 hn         1 8LN       0.416000
     42 H81C        -7.6870    -1.5240     1.4910 h1         1 8LN       0.034950
     43 H82C        -6.7620    -2.9820     1.9040 h1         1 8LN       0.034950
     44 H11          0.4640    -2.7770    -1.0390 h4         1 8LN       0.035100
     45 H15          3.4490     2.4190    -1.7460 h4         1 8LN       0.234000
     46 H20          7.9510     1.6060     0.2530 ha         1 8LN       0.145000
     47 H17          4.0600    -1.4440     1.2080 h4         1 8LN       0.152000
     48 H18          6.3380    -1.8400     2.2990 ha         1 8LN       0.132000
     49 H19          8.2920    -0.3430     1.7750 ha         1 8LN       0.125000
     50 N4          -0.8370     1.3050     0.0850 nu         1 8LN      -0.883900
@<TRIPOS>BOND
     1     1     4 1   
     2     1    29 1   
     3     1    30 1   
     4     1    31 1   
     5     2     3 2   
     6     2     6 1   
     7     2    32 1   
     8     3     4 1   
     9     3    50 1   
    10     4     5 2   
    11     5     6 1   
    12     6     7 1   
    13     7     8 1   
    14     7    12 1   
    15     7    34 1   
    16     8     9 1   
    17     8    35 1   
    18     8    36 1   
    19     9    10 1   
    20     9    39 1   
    21     9    40 1   
    22    10    11 1   
    23    10    41 1   
    24    11    12 1   
    25    11    42 1   
    26    11    43 1   
    27    12    37 1   
    28    12    38 1   
    29    13    14 ar  
    30    13    18 ar  
    31    13    50 1   
    32    14    15 ar  
    33    15    16 ar  
    34    15    44 1   
    35    16    17 ar  
    36    16    28 1   
    37    17    18 ar  
    38    17    19 1   
    39    19    20 2   
    40    19    23 1   
    41    20    21 1   
    42    20    45 1   
    43    21    22 2   
    44    22    23 1   
    45    22    27 1   
    46    23    24 1   
    47    24    25 2   
    48    24    47 1   
    49    25    26 1   
    50    25    48 1   
    51    26    27 2   
    52    26    49 1   
    53    27    46 1   
    54    33    50 1   
@<TRIPOS>SUBSTRUCTURE
     1 8LN         1 TEMP              0 ****  ****    0 ROOT
