@<TRIPOS>MOLECULE
8LN
   50    54     1     0     0
SMALL
abcg2


@<TRIPOS>ATOM
      1 C1          -2.7970     3.8230     0.6330 c3         1 8LN      -0.121400
      2 C2          -2.9860     0.2020     0.0530 cc         1 8LN      -0.168000
      3 C3          -2.2070     1.3370     0.1370 cd         1 8LN       0.166000
      4 C4          -3.1100     2.3810     0.4310 cd         1 8LN       0.227300
      5 N1          -4.3400     1.9060     0.5190 nc         1 8LN      -0.511800
      6 N2          -4.2530     0.6030     0.2960 na         1 8LN       0.135800
      7 C5          -5.4460    -0.2250     0.3000 c6         1 8LN       0.097300
      8 C6          -5.8780    -0.6160    -1.1110 c6         1 8LN      -0.091900
      9 C7          -7.1220    -1.4920    -1.0460 c6         1 8LN       0.160300
     10 N3          -6.8590    -2.6650    -0.2330 n7         1 8LN      -0.865400
     11 C8          -6.5370    -2.3050     1.1360 c6         1 8LN       0.160300
     12 C9          -5.2660    -1.4680     1.1660 c6         1 8LN      -0.091900
     13 C10          0.1070     0.5820    -0.2220 ca         1 8LN       0.393900
     14 N5          -0.2740    -0.6830    -0.4040 nb         1 8LN      -0.235000
     15 C11          0.6830    -1.5520    -0.6670 ca         1 8LN       0.167900
     16 C12          2.0180    -1.1900    -0.7310 ca         1 8LN      -0.077000
     17 C13          2.3330     0.1460    -0.4640 ca         1 8LN       0.281800
     18 N6           1.3680     1.0220    -0.2270 nb         1 8LN      -0.241000
     19 C14          3.6910     0.6720    -0.4860 cc         1 8LN      -0.286900
     20 C15          4.1880     1.7620    -1.1640 cd         1 8LN       0.028600
     21 N7           5.5100     1.9150    -0.9700 nd         1 8LN      -0.296600
     22 C16          5.8610     0.9410    -0.1430 cc         1 8LN      -0.065000
     23 N8           4.7740     0.1490     0.1840 na         1 8LN       0.157100
     24 C17          4.8660    -0.8690     1.0890 cc         1 8LN      -0.099000
     25 C18          6.0720    -1.1580     1.6400 cd         1 8LN      -0.146000
     26 C19          7.2180    -0.4020     1.2950 cd         1 8LN      -0.098000
     27 C20          7.1150     0.6400     0.4210 cc         1 8LN      -0.078000
     28 CL           3.2040    -2.3410    -1.2180 cl         1 8LN      -0.170000
     29 H11C        -2.3870     4.2790    -0.2700 hc         1 8LN       0.047700
     30 H12C        -3.6970     4.3740     0.9030 hc         1 8LN       0.047700
     31 H13C        -2.0670     3.9700     1.4320 hc         1 8LN       0.047700
     32 H2          -2.7290    -0.8200    -0.1530 h4         1 8LN       0.181000
     33 H4          -0.4860     2.4550     0.1440 hn         1 8LN       0.521000
     34 H5          -6.2230     0.4000     0.7460 h1         1 8LN       0.081700
     35 H61C        -6.0820     0.2790    -1.7040 hc         1 8LN       0.060950
     36 H62C        -5.0720    -1.1670    -1.6050 hc         1 8LN       0.060950
     37 H91C        -4.4350    -2.0710     0.7910 hc         1 8LN       0.060950
     38 H92C        -5.0290    -1.1800     2.1920 hc         1 8LN       0.060950
     39 H71C        -7.9600    -0.8900    -0.6590 h1         1 8LN       0.034950
     40 H72C        -7.4000    -1.8110    -2.0520 h1         1 8LN       0.034950
     41 H3          -7.6680    -3.2710    -0.2420 hn         1 8LN       0.416000
     42 H81C        -7.3460    -1.7360     1.6240 h1         1 8LN       0.034950
     43 H82C        -6.3910    -3.2150     1.7200 h1         1 8LN       0.034950
     44 H11          0.3850    -2.5780    -0.8490 h4         1 8LN       0.035100
     45 H15          3.6230     2.4190    -1.8090 h4         1 8LN       0.234000
     46 H20          7.9650     1.2540     0.1540 ha         1 8LN       0.145000
     47 H17          3.9580    -1.3900     1.3490 h4         1 8LN       0.152000
     48 H18          6.1370    -1.9650     2.3540 ha         1 8LN       0.132000
     49 H19          8.1720    -0.6450     1.7420 ha         1 8LN       0.125000
     50 N4          -0.8370     1.5200     0.0040 nu         1 8LN      -0.883900
@<TRIPOS>BOND
     1     1     4 1   
     2     1    29 1   
     3     1    30 1   
     4     1    31 1   
     5     2     3 2   
     6     2     6 1   
     7     2    32 1   
     8     3     4 1   
     9     3    50 1   
    10     4     5 2   
    11     5     6 1   
    12     6     7 1   
    13     7     8 1   
    14     7    12 1   
    15     7    34 1   
    16     8     9 1   
    17     8    35 1   
    18     8    36 1   
    19     9    10 1   
    20     9    39 1   
    21     9    40 1   
    22    10    11 1   
    23    10    41 1   
    24    11    12 1   
    25    11    42 1   
    26    11    43 1   
    27    12    37 1   
    28    12    38 1   
    29    13    14 ar  
    30    13    18 ar  
    31    13    50 1   
    32    14    15 ar  
    33    15    16 ar  
    34    15    44 1   
    35    16    17 ar  
    36    16    28 1   
    37    17    18 ar  
    38    17    19 1   
    39    19    20 2   
    40    19    23 1   
    41    20    21 1   
    42    20    45 1   
    43    21    22 2   
    44    22    23 1   
    45    22    27 1   
    46    23    24 1   
    47    24    25 2   
    48    24    47 1   
    49    25    26 1   
    50    25    48 1   
    51    26    27 2   
    52    26    49 1   
    53    27    46 1   
    54    33    50 1   
@<TRIPOS>SUBSTRUCTURE
     1 8LN         1 TEMP              0 ****  ****    0 ROOT
