@<TRIPOS>MOLECULE
8LO
   50    50     1     0     0
SMALL
No Charge or Current Charge


@<TRIPOS>ATOM
      1 C1          -1.6760    -2.7830     0.3850 c3         1 8LO      -0.086100
      2 CG2         -2.1830    -1.9830    -0.8310 c3         1 8LO      -0.029100
      3 CB          -3.0790    -0.8020    -0.4360 ca         1 8LO      -0.067800
      4 CG1         -4.4680    -0.9230    -0.6340 ca         1 8LO      -0.107500
      5 CD1         -5.3390     0.1060    -0.2490 ca         1 8LO      -0.105000
      6 C6          -4.8310     1.2660     0.3530 ca         1 8LO      -0.107500
      7 C           -3.4480     1.4120     0.5680 ca         1 8LO      -0.067800
      8 C8          -2.9370     2.6960     1.2260 c3         1 8LO      -0.029100
      9 C9          -2.4580     3.7350     0.1930 c3         1 8LO      -0.086100
     10 CA          -2.5640     0.3830     0.1570 ca         1 8LO      -0.024000
     11 N           -1.1730     0.5390     0.3790 ns         1 8LO      -0.190000
     12 C11         -0.1530     0.6570    -0.5410 c          1 8LO       0.661100
     13 O1          -0.3230     0.7560    -1.7480 o          1 8LO      -0.639100
     14 N2           1.0900     0.6540     0.0410 ns         1 8LO      -0.519900
     15 C12          2.3750     0.6270    -0.6960 c3         1 8LO       0.052700
     16 C13          2.5740    -0.7190    -1.4660 c3         1 8LO      -0.096400
     17 C14          2.2900    -2.0370    -0.6830 c3         1 8LO      -0.058700
     18 C15          2.3680    -3.2590    -1.6260 c3         1 8LO      -0.093600
     19 C16          3.2120    -2.2380     0.5420 c3         1 8LO      -0.093600
     20 C17          3.5630     1.0050     0.2480 c          1 8LO       0.599100
     21 O2           3.4150     1.2200     1.4480 o          1 8LO      -0.579100
     22 N3           4.8080     1.1120    -0.3680 ns         1 8LO      -0.384400
     23 O3           6.0240     1.2020     0.4170 oh         1 8LO      -0.420100
     24 H1          -2.5190    -3.1740     0.9670 hc         1 8LO       0.035367
     25 H2          -1.0630    -3.6310     0.0540 hc         1 8LO       0.035367
     26 H3          -1.0620    -2.1580     1.0430 hc         1 8LO       0.035367
     27 H4          -1.3260    -1.6490    -1.4240 hc         1 8LO       0.046200
     28 H5          -2.7320    -2.6700    -1.4860 hc         1 8LO       0.046200
     29 H6          -4.8800    -1.8240    -1.0830 ha         1 8LO       0.113000
     30 H7          -6.4100     0.0010    -0.4080 ha         1 8LO       0.114000
     31 H8          -5.5170     2.0550     0.6530 ha         1 8LO       0.113000
     32 H9          -3.7300     3.1490     1.8330 hc         1 8LO       0.046200
     33 H10         -2.1200     2.4790     1.9250 hc         1 8LO       0.046200
     34 H11         -3.2740     4.0060    -0.4870 hc         1 8LO       0.035367
     35 H12         -2.1140     4.6450     0.6980 hc         1 8LO       0.035367
     36 H13         -1.6280     3.3390    -0.4040 hc         1 8LO       0.035367
     37 H14         -0.8910     0.5270     1.3500 hn         1 8LO       0.153000
     38 H15          1.1250     0.6050     1.0530 hn         1 8LO       0.331500
     39 H16          2.3450     1.4290    -1.4450 h1         1 8LO       0.084700
     40 H17          1.9040    -0.6990    -2.3340 hc         1 8LO       0.055700
     41 H18          3.5850    -0.7610    -1.8890 hc         1 8LO       0.055700
     42 H19          1.2590    -1.9990    -0.3110 hc         1 8LO       0.048700
     43 H20          3.3790    -3.3740    -2.0350 hc         1 8LO       0.036367
     44 H21          2.1060    -4.1800    -1.0910 hc         1 8LO       0.036367
     45 H22          1.6680    -3.1490    -2.4640 hc         1 8LO       0.036367
     46 H23          3.0420    -3.2210     0.9970 hc         1 8LO       0.036367
     47 H24          4.2680    -2.1740     0.2530 hc         1 8LO       0.036367
     48 H25          3.0130    -1.4860     1.3130 hc         1 8LO       0.036367
     49 H26          4.9190     0.8050    -1.3340 hn         1 8LO       0.340500
     50 H27          6.4940     1.9790     0.0310 ho         1 8LO       0.447000
@<TRIPOS>BOND
     1     1     2 1   
     2     1    24 1   
     3     1    25 1   
     4     1    26 1   
     5     2     3 1   
     6     2    27 1   
     7     2    28 1   
     8     3     4 ar  
     9     3    10 ar  
    10     4     5 ar  
    11     4    29 1   
    12     5     6 ar  
    13     5    30 1   
    14     6     7 ar  
    15     6    31 1   
    16     7     8 1   
    17     7    10 ar  
    18     8     9 1   
    19     8    32 1   
    20     8    33 1   
    21     9    34 1   
    22     9    35 1   
    23     9    36 1   
    24    10    11 1   
    25    11    12 1   
    26    11    37 1   
    27    12    13 2   
    28    12    14 1   
    29    14    15 1   
    30    14    38 1   
    31    15    16 1   
    32    15    20 1   
    33    15    39 1   
    34    16    17 1   
    35    16    40 1   
    36    16    41 1   
    37    17    18 1   
    38    17    19 1   
    39    17    42 1   
    40    18    43 1   
    41    18    44 1   
    42    18    45 1   
    43    19    46 1   
    44    19    47 1   
    45    19    48 1   
    46    20    21 2   
    47    20    22 1   
    48    22    23 1   
    49    22    49 1   
    50    23    50 1   
@<TRIPOS>SUBSTRUCTURE
     1 8LO         1 TEMP              0 ****  ****    0 ROOT
