@<TRIPOS>MOLECULE
8LO
   50    50     1     0     0
SMALL
bcc


@<TRIPOS>ATOM
      1 C1          -1.9470    -2.8290     0.4540 c3         1 8LO      -0.086100
      2 CG2         -2.2150    -1.9800    -0.7870 c3         1 8LO      -0.029100
      3 CB          -3.0660    -0.7730    -0.4920 ca         1 8LO      -0.067800
      4 CG1         -4.4130    -0.7800    -0.8410 ca         1 8LO      -0.125500
      5 CD1         -5.2420     0.2840    -0.5170 ca         1 8LO      -0.123000
      6 C6          -4.7270     1.3750     0.1630 ca         1 8LO      -0.125500
      7 C           -3.3800     1.4270     0.5120 ca         1 8LO      -0.067800
      8 C8          -2.8310     2.6510     1.1930 c3         1 8LO      -0.029100
      9 C9          -2.2290     3.6420     0.1970 c3         1 8LO      -0.086100
     10 CA          -2.5580     0.3470     0.1770 ca         1 8LO       0.068600
     11 N           -1.1950     0.3740     0.5570 ns         1 8LO      -0.516100
     12 C11         -0.1880     0.5780    -0.3390 c          1 8LO       0.795100
     13 O1          -0.3960     0.7760    -1.5300 o          1 8LO      -0.639100
     14 N2           1.0570     0.5450     0.1980 ns         1 8LO      -0.586900
     15 C12          2.2350     0.5530    -0.6260 c3         1 8LO       0.052700
     16 C13          2.4530    -0.7790    -1.3710 c3         1 8LO      -0.096400
     17 C14          2.4610    -2.0600    -0.5340 c3         1 8LO      -0.058700
     18 C15          2.2710    -3.2600    -1.4590 c3         1 8LO      -0.093600
     19 C16          3.7280    -2.2410     0.2970 c3         1 8LO      -0.093600
     20 C17          3.4130     0.9750     0.2500 c          1 8LO       0.666100
     21 O2           3.3450     1.0620     1.4630 o          1 8LO      -0.579100
     22 N3           4.5160     1.2710    -0.4550 ns         1 8LO      -0.451400
     23 O3           5.7000     1.4680     0.1870 oh         1 8LO      -0.381100
     24 H1          -2.8790    -3.1880     0.8920 hc         1 8LO       0.035367
     25 H2          -1.3400    -3.6990     0.1990 hc         1 8LO       0.035367
     26 H3          -1.4130    -2.2650     1.2170 hc         1 8LO       0.035367
     27 H4          -1.2690    -1.6880    -1.2450 hc         1 8LO       0.046200
     28 H5          -2.7310    -2.5930    -1.5300 hc         1 8LO       0.046200
     29 H6          -4.8190    -1.6380    -1.3630 ha         1 8LO       0.131000
     30 H7          -6.2890     0.2580    -0.7890 ha         1 8LO       0.132000
     31 H8          -5.3740     2.2050     0.4240 ha         1 8LO       0.131000
     32 H9          -3.6360     3.1420     1.7440 hc         1 8LO       0.046200
     33 H10         -2.0760     2.3790     1.9330 hc         1 8LO       0.046200
     34 H11         -2.9870     4.0050    -0.4990 hc         1 8LO       0.035367
     35 H12         -1.8110     4.5050     0.7150 hc         1 8LO       0.035367
     36 H13         -1.4330     3.1860    -0.3920 hc         1 8LO       0.035367
     37 H14         -0.9770     0.3090     1.5390 hn         1 8LO       0.319500
     38 H15          1.1810     0.3300     1.1750 hn         1 8LO       0.331500
     39 H16          2.1170     1.3250    -1.3930 h1         1 8LO       0.084700
     40 H17          1.6420    -0.8480    -2.1000 hc         1 8LO       0.055700
     41 H18          3.3710    -0.7260    -1.9660 hc         1 8LO       0.055700
     42 H19          1.6030    -2.0330     0.1470 hc         1 8LO       0.048700
     43 H20          3.0840    -3.3290    -2.1860 hc         1 8LO       0.036367
     44 H21          2.2520    -4.1930    -0.8940 hc         1 8LO       0.036367
     45 H22          1.3350    -3.1910    -2.0170 hc         1 8LO       0.036367
     46 H23          3.7190    -3.2110     0.7990 hc         1 8LO       0.036367
     47 H24          4.6190    -2.2100    -0.3350 hc         1 8LO       0.036367
     48 H25          3.8400    -1.4870     1.0740 hc         1 8LO       0.036367
     49 H26          4.5950     1.1000    -1.4470 hn         1 8LO       0.340500
     50 H27          5.8140     2.4250     0.2540 ho         1 8LO       0.408000
@<TRIPOS>BOND
     1     1     2 1   
     2     1    24 1   
     3     1    25 1   
     4     1    26 1   
     5     2     3 1   
     6     2    27 1   
     7     2    28 1   
     8     3     4 ar  
     9     3    10 ar  
    10     4     5 ar  
    11     4    29 1   
    12     5     6 ar  
    13     5    30 1   
    14     6     7 ar  
    15     6    31 1   
    16     7     8 1   
    17     7    10 ar  
    18     8     9 1   
    19     8    32 1   
    20     8    33 1   
    21     9    34 1   
    22     9    35 1   
    23     9    36 1   
    24    10    11 1   
    25    11    12 1   
    26    11    37 1   
    27    12    13 2   
    28    12    14 1   
    29    14    15 1   
    30    14    38 1   
    31    15    16 1   
    32    15    20 1   
    33    15    39 1   
    34    16    17 1   
    35    16    40 1   
    36    16    41 1   
    37    17    18 1   
    38    17    19 1   
    39    17    42 1   
    40    18    43 1   
    41    18    44 1   
    42    18    45 1   
    43    19    46 1   
    44    19    47 1   
    45    19    48 1   
    46    20    21 2   
    47    20    22 1   
    48    22    23 1   
    49    22    49 1   
    50    23    50 1   
@<TRIPOS>SUBSTRUCTURE
     1 8LO         1 TEMP              0 ****  ****    0 ROOT
