@<TRIPOS>MOLECULE
8LP
   56    60     1     0     0
SMALL
No Charge or Current Charge


@<TRIPOS>ATOM
      1 N1          -1.7280    -3.2230    -0.8380 ns         1 8LP      -0.414100
      2 N3          -4.1580    -0.6060     1.3030 n          1 8LP      -0.275000
      3 C4          -5.4310     3.7780     0.3470 ca         1 8LP      -0.113500
      4 C5           7.1080     3.3000     1.5710 ca         1 8LP      -0.114500
      5 C6           7.9780     1.0970     2.1260 ca         1 8LP      -0.114500
      6 C7           2.8250    -1.0740    -3.5450 ca         1 8LP      -0.067000
      7 C8          -6.6440     1.2440     0.3210 ca         1 8LP      -0.084000
      8 C10          6.4130     2.7510     0.4780 ca         1 8LP      -0.083500
      9 C13          3.7920    -0.4470    -2.7450 ca         1 8LP      -0.196000
     10 C15         -5.5370     1.4800     1.1610 ca         1 8LP      -0.114300
     11 C17          1.2620    -1.1320    -1.6580 ca         1 8LP      -0.014000
     12 C20         -2.8400    -0.2710     0.9830 cc         1 8LP       0.008600
     13 C21         -2.0130    -1.1250     0.2780 cd         1 8LP      -0.252200
     14 C22         -2.5320    -2.3830    -0.1290 cd         1 8LP       0.187600
     15 C24         -0.4880    -2.9220    -1.3400 c          1 8LP       0.620000
     16 C26         -4.9970     0.3630     2.0460 c3         1 8LP       0.141300
     17 C1          -6.5340     3.5380    -0.4890 ca         1 8LP      -0.098000
     18 C2           7.8910     2.4740     2.3950 ca         1 8LP      -0.097000
     19 C3          -7.1400     2.2710    -0.5010 ca         1 8LP      -0.113500
     20 C9          -4.9330     2.7530     1.1700 ca         1 8LP      -0.084000
     21 C11          7.2840     0.5470     1.0340 ca         1 8LP      -0.083500
     22 C12          1.5830    -1.4370    -2.9980 ca         1 8LP      -0.144000
     23 C14          2.2740    -0.5680    -0.8480 ca         1 8LP      -0.130000
     24 C16          6.4990     1.3720     0.2030 ca         1 8LP      -0.098300
     25 C18          3.5200    -0.2030    -1.3840 ca         1 8LP       0.148100
     26 C19         -3.8180    -2.7260     0.1840 cc         1 8LP      -0.402200
     27 C23         -4.7190    -1.8440     0.9240 c          1 8LP       0.575200
     28 C25         -0.5780    -0.7640    -0.0200 c6         1 8LP       0.183200
     29 C27          5.7470     0.7770    -0.9800 c3         1 8LP       0.211900
     30 N2           0.0480    -1.6360    -1.0510 n          1 8LP      -0.242400
     31 O1          -5.8680    -2.1720     1.1840 o          1 8LP      -0.558000
     32 O2           0.1000    -3.7590    -2.0090 o          1 8LP      -0.556000
     33 O3           4.4410     0.3730    -0.5340 os         1 8LP      -0.340100
     34 H1          -2.0660    -4.1400    -1.0930 hn         1 8LP       0.340500
     35 H2          -4.9600     4.7590     0.3570 ha         1 8LP       0.114500
     36 H4           8.5820     0.4560     2.7640 ha         1 8LP       0.115000
     37 H5           3.0400    -1.2880    -4.5910 ha         1 8LP       0.115000
     38 H6          -7.1180     0.2650     0.3040 ha         1 8LP       0.115000
     39 H7           5.8080     3.3970    -0.1530 ha         1 8LP       0.114500
     40 H8           4.7450    -0.1800    -3.1920 ha         1 8LP       0.118000
     41 H9          -2.5540     0.7100     1.3480 h4         1 8LP       0.199000
     42 H10         -5.8360    -0.1490     2.5340 h1         1 8LP       0.067200
     43 H11         -4.3950     0.7980     2.8540 h1         1 8LP       0.067200
     44 H12         -6.9190     4.3320    -1.1260 ha         1 8LP       0.114000
     45 H13          8.4280     2.8990     3.2400 ha         1 8LP       0.113000
     46 H14         -7.9950     2.0830    -1.1480 ha         1 8LP       0.114500
     47 H15         -4.0770     2.9500     1.8120 ha         1 8LP       0.115000
     48 H16          7.3540    -0.5200     0.8340 ha         1 8LP       0.114500
     49 H17          0.8540    -1.9270    -3.6390 ha         1 8LP       0.124000
     50 H18          2.1060    -0.4020     0.2120 ha         1 8LP       0.140000
     51 H19         -4.2460    -3.6760    -0.1110 ha         1 8LP       0.213000
     52 H20         -0.5220     0.2810    -0.3590 h1         1 8LP       0.051700
     53 H21          0.0060    -0.8390     0.9080 h1         1 8LP       0.051700
     54 H22          5.6690     1.5270    -1.7780 h1         1 8LP       0.041700
     55 H23          6.3050    -0.0840    -1.3730 h1         1 8LP       0.041700
     56 H3           7.0390     4.3660     1.7790 ha         1 8LP       0.115000
@<TRIPOS>BOND
     1     1    14 1   
     2     1    15 1   
     3     1    34 1   
     4     2    12 1   
     5     2    16 1   
     6     2    27 1   
     7     3    17 ar  
     8     3    20 ar  
     9     3    35 1   
    10     4     8 ar  
    11     4    18 ar  
    12     4    56 1   
    13     5    18 ar  
    14     5    21 ar  
    15     5    36 1   
    16     6     9 ar  
    17     6    22 ar  
    18     6    37 1   
    19     7    10 ar  
    20     7    19 ar  
    21     7    38 1   
    22     8    24 ar  
    23     8    39 1   
    24     9    25 ar  
    25     9    40 1   
    26    10    16 1   
    27    10    20 ar  
    28    11    22 ar  
    29    11    23 ar  
    30    11    30 1   
    31    12    13 2   
    32    12    41 1   
    33    13    14 1   
    34    13    28 1   
    35    14    26 2   
    36    15    30 1   
    37    15    32 2   
    38    16    42 1   
    39    16    43 1   
    40    17    19 ar  
    41    17    44 1   
    42    18    45 1   
    43    19    46 1   
    44    20    47 1   
    45    21    24 ar  
    46    21    48 1   
    47    22    49 1   
    48    23    25 ar  
    49    23    50 1   
    50    24    29 1   
    51    25    33 1   
    52    26    27 1   
    53    26    51 1   
    54    27    31 2   
    55    28    30 1   
    56    28    52 1   
    57    28    53 1   
    58    29    33 1   
    59    29    54 1   
    60    29    55 1   
@<TRIPOS>SUBSTRUCTURE
     1 8LP         1 TEMP              0 ****  ****    0 ROOT
