@<TRIPOS>MOLECULE
8LP
   56    60     1     0     0
SMALL
bcc


@<TRIPOS>ATOM
      1 N1          -1.4930    -2.6780    -0.8350 ns         1 8LP      -0.481100
      2 N3          -3.7490     0.1440     1.1330 n          1 8LP      -0.342000
      3 C4          -6.8290     2.5310    -0.9090 ca         1 8LP      -0.131500
      4 C5           7.3900     2.3370     2.2970 ca         1 8LP      -0.132500
      5 C6           8.2500     0.0930     2.2290 ca         1 8LP      -0.132500
      6 C7           2.9670    -0.3870    -3.5430 ca         1 8LP      -0.085000
      7 C8          -7.0440     1.2050     1.5180 ca         1 8LP      -0.102000
      8 C10          6.6780     2.0980     1.1310 ca         1 8LP      -0.101500
      9 C13          3.9860    -0.0600    -2.6540 ca         1 8LP      -0.214000
     10 C15         -5.7850     1.5310     1.0260 ca         1 8LP      -0.114300
     11 C17          1.4810    -0.8050    -1.7220 ca         1 8LP       0.078600
     12 C20         -2.6600     0.4960     0.4100 cc         1 8LP       0.058600
     13 C21         -1.9140    -0.4050    -0.2700 cd         1 8LP      -0.252200
     14 C22         -2.2880    -1.7680    -0.1800 cd         1 8LP       0.187600
     15 C24         -0.1980    -2.4320    -1.2450 c          1 8LP       0.829500
     16 C26         -4.5390     1.1790     1.7980 c3         1 8LP       0.141300
     17 C1          -8.0840     2.2040    -0.4090 ca         1 8LP      -0.116000
     18 C2           8.1770     1.3340     2.8480 ca         1 8LP      -0.115000
     19 C3          -8.1880     1.5450     0.8080 ca         1 8LP      -0.131500
     20 C9          -5.6880     2.1990    -0.1920 ca         1 8LP      -0.102000
     21 C11          7.5350    -0.1430     1.0620 ca         1 8LP      -0.101500
     22 C12          1.7120    -0.7570    -3.0920 ca         1 8LP      -0.162000
     23 C14          2.4790    -0.4840    -0.8220 ca         1 8LP      -0.148000
     24 C16          6.7460     0.8570     0.5020 ca         1 8LP      -0.098300
     25 C18          3.7420    -0.1070    -1.2840 ca         1 8LP       0.148100
     26 C19         -3.3870    -2.1390     0.5400 cc         1 8LP      -0.352200
     27 C23         -4.1900    -1.1780     1.2300 c          1 8LP       0.717700
     28 C25         -0.7760    -0.0360    -1.1640 c6         1 8LP       0.183200
     29 C27          5.9520     0.5960    -0.7410 c3         1 8LP       0.188700
     30 N2           0.1880    -1.1290    -1.2220 n          1 8LP      -0.402000
     31 O1          -5.1920    -1.4420     1.8890 o          1 8LP      -0.633500
     32 O2           0.5350    -3.3470    -1.5750 o          1 8LP      -0.631500
     33 O3           4.6500     0.1910    -0.3350 os         1 8LP      -0.316900
     34 H1          -1.7430    -3.6550    -0.7800 hn         1 8LP       0.340500
     35 H2          -6.7390     3.0520    -1.8530 ha         1 8LP       0.132500
     36 H4           8.8650    -0.6900     2.6520 ha         1 8LP       0.133000
     37 H5           3.1660    -0.3460    -4.6060 ha         1 8LP       0.133000
     38 H6          -7.1300     0.6810     2.4620 ha         1 8LP       0.133000
     39 H7           6.0700     2.8840     0.6990 ha         1 8LP       0.132500
     40 H8           4.9500     0.2280    -3.0490 ha         1 8LP       0.136000
     41 H9          -2.4200     1.5500     0.3950 h4         1 8LP       0.149000
     42 H10         -4.7900     0.8400     2.8010 h1         1 8LP       0.067200
     43 H11         -3.8980     2.0550     1.9020 h1         1 8LP       0.067200
     44 H12         -8.9750     2.4640    -0.9650 ha         1 8LP       0.132000
     45 H13          8.7350     1.5200     3.7570 ha         1 8LP       0.131000
     46 H14         -9.1630     1.2900     1.2050 ha         1 8LP       0.132500
     47 H15         -4.7150     2.4690    -0.5880 ha         1 8LP       0.133000
     48 H16          7.5950    -1.1120     0.5810 ha         1 8LP       0.132500
     49 H17          0.9230    -1.0030    -3.7910 ha         1 8LP       0.142000
     50 H18          2.2840    -0.5230     0.2430 ha         1 8LP       0.158000
     51 H19         -3.6770    -3.1790     0.6230 ha         1 8LP       0.163000
     52 H20         -1.1360     0.1980    -2.1730 h1         1 8LP       0.051700
     53 H21         -0.2660     0.8510    -0.7910 h1         1 8LP       0.051700
     54 H22          5.8930     1.5030    -1.3530 h1         1 8LP       0.041700
     55 H23          6.4250    -0.1850    -1.3450 h1         1 8LP       0.041700
     56 H3           7.3350     3.3070     2.7730 ha         1 8LP       0.133000
@<TRIPOS>BOND
     1     1    14 1   
     2     1    15 1   
     3     1    34 1   
     4     2    12 1   
     5     2    16 1   
     6     2    27 1   
     7     3    17 ar  
     8     3    20 ar  
     9     3    35 1   
    10     4     8 ar  
    11     4    18 ar  
    12     4    56 1   
    13     5    18 ar  
    14     5    21 ar  
    15     5    36 1   
    16     6     9 ar  
    17     6    22 ar  
    18     6    37 1   
    19     7    10 ar  
    20     7    19 ar  
    21     7    38 1   
    22     8    24 ar  
    23     8    39 1   
    24     9    25 ar  
    25     9    40 1   
    26    10    16 1   
    27    10    20 ar  
    28    11    22 ar  
    29    11    23 ar  
    30    11    30 1   
    31    12    13 2   
    32    12    41 1   
    33    13    14 1   
    34    13    28 1   
    35    14    26 2   
    36    15    30 1   
    37    15    32 2   
    38    16    42 1   
    39    16    43 1   
    40    17    19 ar  
    41    17    44 1   
    42    18    45 1   
    43    19    46 1   
    44    20    47 1   
    45    21    24 ar  
    46    21    48 1   
    47    22    49 1   
    48    23    25 ar  
    49    23    50 1   
    50    24    29 1   
    51    25    33 1   
    52    26    27 1   
    53    26    51 1   
    54    27    31 2   
    55    28    30 1   
    56    28    52 1   
    57    28    53 1   
    58    29    33 1   
    59    29    54 1   
    60    29    55 1   
@<TRIPOS>SUBSTRUCTURE
     1 8LP         1 TEMP              0 ****  ****    0 ROOT
