@<TRIPOS>MOLECULE
8LR
   31    31     1     0     0
SMALL
No Charge or Current Charge


@<TRIPOS>ATOM
      1 OAF          3.4720    -0.1710    -1.6490 oh         1 8LR      -0.707000
      2 CAG          3.6900    -0.9570    -0.4600 c3         1 8LR       0.161600
      3 CAH          2.6170    -0.6690     0.6240 c3         1 8LR       0.161600
      4 O1           1.3350    -1.1420     0.1580 os         1 8LR      -0.480000
      5 C1           0.2210    -0.9560     1.0520 c6         1 8LR       0.353300
      6 O5          -0.0170     0.4590     1.2350 os         1 8LR      -0.457000
      7 C5          -0.3740     1.1770     0.0180 c6         1 8LR       0.169300
      8 C6          -0.5270     2.6950     0.3670 c3         1 8LR       0.170600
      9 O6           0.6450     3.2660     0.9860 oh         1 8LR      -0.715000
     10 C4          -1.6770     0.5780    -0.5990 c6         1 8LR       0.147300
     11 O4          -2.0340     1.2160    -1.8430 oh         1 8LR      -0.723000
     12 C3          -1.5000    -0.9560    -0.8250 c6         1 8LR       0.142300
     13 O3          -2.7280    -1.5320    -1.3080 oh         1 8LR      -0.653000
     14 C2          -1.0710    -1.6600     0.4970 c6         1 8LR       0.124300
     15 O2          -2.1800    -1.6210     1.4350 oh         1 8LR      -0.691000
     16 HAG1         3.6750    -2.0280    -0.7000 h1         1 8LR       0.024200
     17 HAG2         4.6780    -0.7290    -0.0390 h1         1 8LR       0.024200
     18 HAH1         2.9010    -1.1850     1.5500 h1         1 8LR       0.044700
     19 HAH2         2.5920     0.4090     0.8300 h1         1 8LR       0.044700
     20 H1           0.4710    -1.4050     2.0250 h2         1 8LR       0.061700
     21 H2          -0.8150    -2.7050     0.2680 h1         1 8LR       0.045700
     22 H5           0.4460     1.0820    -0.7090 h1         1 8LR       0.075700
     23 H61C        -0.7600     3.2380    -0.5590 h1         1 8LR       0.035200
     24 H62C        -1.3950     2.8040     1.0330 h1         1 8LR       0.035200
     25 H4          -2.4870     0.7240     0.1330 h1         1 8LR       0.067700
     26 H6           0.4200     4.1960     1.2230 ho         1 8LR       0.501000
     27 HA          -2.6470     0.5820    -2.2890 ho         1 8LR       0.521000
     28 H3          -0.7010    -1.1050    -1.5680 h1         1 8LR       0.064700
     29 HB          -3.2070    -1.8000    -0.4890 ho         1 8LR       0.447000
     30 HC          -1.8890    -2.0790     2.2580 ho         1 8LR       0.501000
     31 HAF          4.1490    -0.4530    -2.3060 ho         1 8LR       0.500000
@<TRIPOS>BOND
     1     1     2 1   
     2     1    31 1   
     3     2     3 1   
     4     2    16 1   
     5     2    17 1   
     6     3     4 1   
     7     3    18 1   
     8     3    19 1   
     9     4     5 1   
    10     5     6 1   
    11     5    14 1   
    12     5    20 1   
    13     6     7 1   
    14     7     8 1   
    15     7    10 1   
    16     7    22 1   
    17     8     9 1   
    18     8    23 1   
    19     8    24 1   
    20     9    26 1   
    21    10    11 1   
    22    10    12 1   
    23    10    25 1   
    24    11    27 1   
    25    12    13 1   
    26    12    14 1   
    27    12    28 1   
    28    13    29 1   
    29    14    15 1   
    30    14    21 1   
    31    15    30 1   
@<TRIPOS>SUBSTRUCTURE
     1 8LR         1 TEMP              0 ****  ****    0 ROOT
