@<TRIPOS>MOLECULE
8LR
   31    31     1     0     0
SMALL
abcg2


@<TRIPOS>ATOM
      1 OAF          3.3900    -0.4850    -1.6480 oh         1 8LR      -0.707000
      2 CAG          3.5970    -1.0950    -0.3950 c3         1 8LR       0.161600
      3 CAH          2.5500    -0.6130     0.5750 c3         1 8LR       0.161600
      4 O1           1.2810    -1.0880     0.1690 os         1 8LR      -0.480000
      5 C1           0.2470    -0.8260     1.0600 c6         1 8LR       0.353300
      6 O5          -0.0060     0.5400     1.2120 os         1 8LR      -0.457000
      7 C5          -0.4190     1.2180     0.0370 c6         1 8LR       0.169300
      8 C6          -0.5980     2.6760     0.4010 c3         1 8LR       0.170600
      9 O6           0.6490     3.2020     0.7890 oh         1 8LR      -0.715000
     10 C4          -1.7090     0.5970    -0.5000 c6         1 8LR       0.147300
     11 O4          -2.0340     1.2460    -1.7060 oh         1 8LR      -0.723000
     12 C3          -1.4930    -0.8970    -0.7220 c6         1 8LR       0.142300
     13 O3          -2.7090    -1.4400    -1.1800 oh         1 8LR      -0.653000
     14 C2          -0.9960    -1.5660     0.5560 c6         1 8LR       0.124300
     15 O2          -2.0220    -1.5100     1.5150 oh         1 8LR      -0.691000
     16 HAG1         3.5560    -2.1900    -0.4600 h1         1 8LR       0.024200
     17 HAG2         4.5760    -0.8380     0.0290 h1         1 8LR       0.024200
     18 HAH1         2.8000    -0.9920     1.5750 h1         1 8LR       0.044700
     19 HAH2         2.5680     0.4820     0.6280 h1         1 8LR       0.044700
     20 H1           0.5100    -1.1760     2.0700 h2         1 8LR       0.061700
     21 H2          -0.7140    -2.6050     0.3350 h1         1 8LR       0.045700
     22 H5           0.3520     1.1420    -0.7430 h1         1 8LR       0.075700
     23 H61C        -1.0050     3.2040    -0.4680 h1         1 8LR       0.035200
     24 H62C        -1.3430     2.7560     1.2060 h1         1 8LR       0.035200
     25 H4          -2.5050     0.7380     0.2470 h1         1 8LR       0.067700
     26 H6           0.5340     4.1400     0.9620 ho         1 8LR       0.501000
     27 HA          -2.8010     0.8000    -2.0820 ho         1 8LR       0.521000
     28 H3          -0.7080    -1.0100    -1.4830 h1         1 8LR       0.064700
     29 HB          -2.5250    -2.2620    -1.6430 ho         1 8LR       0.447000
     30 HC          -1.7600    -2.0390     2.2750 ho         1 8LR       0.501000
     31 HAF          4.0420    -0.8370    -2.2610 ho         1 8LR       0.500000
@<TRIPOS>BOND
     1     1     2 1   
     2     1    31 1   
     3     2     3 1   
     4     2    16 1   
     5     2    17 1   
     6     3     4 1   
     7     3    18 1   
     8     3    19 1   
     9     4     5 1   
    10     5     6 1   
    11     5    14 1   
    12     5    20 1   
    13     6     7 1   
    14     7     8 1   
    15     7    10 1   
    16     7    22 1   
    17     8     9 1   
    18     8    23 1   
    19     8    24 1   
    20     9    26 1   
    21    10    11 1   
    22    10    12 1   
    23    10    25 1   
    24    11    27 1   
    25    12    13 1   
    26    12    14 1   
    27    12    28 1   
    28    13    29 1   
    29    14    15 1   
    30    14    21 1   
    31    15    30 1   
@<TRIPOS>SUBSTRUCTURE
     1 8LR         1 TEMP              0 ****  ****    0 ROOT
