@<TRIPOS>MOLECULE
8LS
   62    67     1     0     0
SMALL
No Charge or Current Charge


@<TRIPOS>ATOM
      1 C4          -3.4690     2.0890    -0.6980 ca         1 8LS      -0.152300
      2 C5          -4.9600     2.2550    -0.9940 c6         1 8LS      -0.023100
      3 C6          -5.7950     1.1490    -0.3170 c6         1 8LS      -0.107400
      4 C7          -5.1200    -0.2270    -0.5500 c6         1 8LS       0.136000
      5 C10         -1.5940     0.7400     0.0730 ca         1 8LS      -0.128000
      6 N12          0.6530     1.6700     0.3200 n          1 8LS      -0.268400
      7 C13          1.4220     0.5050    -0.1780 c6         1 8LS       0.183200
      8 C15          3.8180     0.1410    -0.9320 c2         1 8LS       0.018600
      9 C20          6.6120    -3.4250     1.1320 ca         1 8LS      -0.111000
     10 C21          5.9560    -4.4790     0.4750 ca         1 8LS      -0.095000
     11 C22          5.3770    -4.2650    -0.7880 ca         1 8LS      -0.111000
     12 C24          5.6290     1.3980     0.0680 c          1 8LS       0.575000
     13 C26          4.6030     2.4640     0.4090 c6         1 8LS      -0.219700
     14 C2          -1.2180     3.0500    -0.6000 ca         1 8LS      -0.097300
     15 C3          -2.5930     3.1730    -0.8830 ca         1 8LS      -0.071000
     16 O8          -3.7830    -0.2200     0.0050 os         1 8LS      -0.328100
     17 C9          -2.9580     0.8640    -0.2210 ca         1 8LS       0.148100
     18 C11         -0.6990     1.8050    -0.1580 ca         1 8LS      -0.015000
     19 C14          2.9290     0.7270    -0.1010 ce         1 8LS      -0.358800
     20 N16          5.2030     0.3960    -0.8350 n          1 8LS      -0.315000
     21 C18          6.1110    -1.9370    -0.7370 ca         1 8LS      -0.126300
     22 C19          6.6890    -2.1580     0.5280 ca         1 8LS      -0.090500
     23 C23          5.4540    -2.9980    -1.3920 ca         1 8LS      -0.090500
     24 O25          6.7210     1.3730     0.6190 o          1 8LS      -0.516000
     25 C27          3.3420     1.7640     0.8310 ce         1 8LS       0.551600
     26 N28          2.5340     2.2630     1.7070 nf         1 8LS      -0.631100
     27 C29          1.1880     2.4670     1.3650 c          1 8LS       0.702400
     28 O30          0.5310     3.2940     1.9760 o          1 8LS      -0.507000
     29 C31         -5.8970    -1.4430     0.0070 ca         1 8LS       0.312300
     30 N32         -6.6230    -1.2550     1.1470 nb         1 8LS      -0.624000
     31 C33         -7.2980    -2.3130     1.6550 ca         1 8LS       0.326900
     32 C34         -7.2800    -3.5880     1.0620 ca         1 8LS      -0.134000
     33 C35         -6.5290    -3.7910    -0.1100 ca         1 8LS      -0.117000
     34 C36         -5.8250    -2.7000    -0.6440 ca         1 8LS       0.129000
     35 F37         -5.0900    -2.8670    -1.7690 f          1 8LS      -0.171000
     36 H1          -5.3120     3.2410    -0.6590 hc         1 8LS       0.053700
     37 H2          -5.1160     2.2210    -2.0810 hc         1 8LS       0.053700
     38 H3          -5.8710     1.3530     0.7600 hc         1 8LS       0.066200
     39 H4          -6.8180     1.1490    -0.7170 hc         1 8LS       0.066200
     40 H5          -5.0230    -0.3600    -1.6370 h1         1 8LS       0.061700
     41 H6          -1.2340    -0.1980     0.4880 ha         1 8LS       0.137000
     42 H7           1.1570    -0.3780     0.4200 h1         1 8LS       0.049700
     43 H8           1.1310     0.3010    -1.2180 h1         1 8LS       0.049700
     44 H9           3.5380    -0.6010    -1.6840 h4         1 8LS       0.199000
     45 H10          6.0070    -0.6560    -2.4650 h1         1 8LS       0.071700
     46 H11          7.2060    -0.1630    -1.2760 h1         1 8LS       0.071700
     47 H13          5.8960    -5.4600     0.9430 ha         1 8LS       0.116000
     48 H14          4.8680    -5.0810    -1.2970 ha         1 8LS       0.117500
     49 H15          4.9850     3.1510     1.1720 hc         1 8LS       0.107700
     50 H16          4.3460     2.9960    -0.5140 hc         1 8LS       0.107700
     51 H20         -2.9850     4.1210    -1.2460 ha         1 8LS       0.111000
     52 H21          7.1980    -1.3480     1.0460 ha         1 8LS       0.117000
     53 H22          5.0020    -2.8440    -2.3700 ha         1 8LS       0.117000
     54 H23         -7.8700    -2.1320     2.5640 h4         1 8LS       0.030100
     55 H24         -7.8400    -4.4040     1.5120 ha         1 8LS       0.130000
     56 H25         -6.4910    -4.7660    -0.5910 ha         1 8LS       0.138000
     57 C17          6.1880    -0.5600    -1.3870 c3         1 8LS       0.143300
     58 C1          -0.3190     4.2560    -0.8670 c3         1 8LS      -0.040800
     59 H12          7.0600    -3.5890     2.1100 ha         1 8LS       0.117500
     60 H17         -0.3050     4.9370    -0.0080 hc         1 8LS       0.043367
     61 H18          0.7140     3.9600    -1.0850 hc         1 8LS       0.043367
     62 H19         -0.6740     4.8280    -1.7320 hc         1 8LS       0.043367
@<TRIPOS>BOND
     1     1     2 1   
     2     1    15 ar  
     3     1    17 ar  
     4     2     3 1   
     5     2    36 1   
     6     2    37 1   
     7     3     4 1   
     8     3    38 1   
     9     3    39 1   
    10     4    16 1   
    11     4    29 1   
    12     4    40 1   
    13     5    17 ar  
    14     5    18 ar  
    15     5    41 1   
    16     6     7 1   
    17     6    18 1   
    18     6    27 1   
    19     7    19 1   
    20     7    42 1   
    21     7    43 1   
    22     8    19 2   
    23     8    20 1   
    24     8    44 1   
    25     9    10 ar  
    26     9    22 ar  
    27     9    59 1   
    28    10    11 ar  
    29    10    47 1   
    30    11    23 ar  
    31    11    48 1   
    32    12    13 1   
    33    12    20 1   
    34    12    24 2   
    35    13    25 1   
    36    13    49 1   
    37    13    50 1   
    38    14    15 ar  
    39    14    18 ar  
    40    14    58 1   
    41    15    51 1   
    42    16    17 1   
    43    19    25 1   
    44    20    57 1   
    45    21    22 ar  
    46    21    23 ar  
    47    21    57 1   
    48    22    52 1   
    49    23    53 1   
    50    25    26 2   
    51    26    27 1   
    52    27    28 2   
    53    29    30 ar  
    54    29    34 ar  
    55    30    31 ar  
    56    31    32 ar  
    57    31    54 1   
    58    32    33 ar  
    59    32    55 1   
    60    33    34 ar  
    61    33    56 1   
    62    34    35 1   
    63    45    57 1   
    64    46    57 1   
    65    58    60 1   
    66    58    61 1   
    67    58    62 1   
@<TRIPOS>SUBSTRUCTURE
     1 8LS         1 TEMP              0 ****  ****    0 ROOT
