@<TRIPOS>MOLECULE
8LS
   62    67     1     0     0
SMALL
abcg2


@<TRIPOS>ATOM
      1 C4          -3.3650     1.9050    -1.0080 ca         1 8LS      -0.152300
      2 C5          -4.8200     1.8350    -1.3770 c6         1 8LS      -0.023100
      3 C6          -5.5120     0.7310    -0.5940 c6         1 8LS      -0.107400
      4 C7          -4.6800    -0.5410    -0.6660 c6         1 8LS       0.136000
      5 C10         -1.3970     0.8850    -0.0550 ca         1 8LS      -0.128000
      6 N12          0.7080     2.0530     0.0450 n          1 8LS      -0.268400
      7 C13          1.6250     1.5890    -0.9860 c6         1 8LS       0.183200
      8 C15          3.9020     0.5610    -0.9400 c2         1 8LS       0.018600
      9 C20          5.7760    -3.7890     1.1020 ca         1 8LS      -0.111000
     10 C21          4.8780    -4.5700     0.3850 ca         1 8LS      -0.095000
     11 C22          4.3550    -4.0970    -0.8100 ca         1 8LS      -0.111000
     12 C24          5.6340     1.0510     0.6430 c          1 8LS       0.575000
     13 C26          4.7510     2.1560     1.1680 c6         1 8LS      -0.219700
     14 C2          -1.2650     3.1510    -0.8990 ca         1 8LS      -0.097300
     15 C3          -2.6070     3.0490    -1.2380 ca         1 8LS      -0.071000
     16 O8          -3.3800    -0.3460    -0.1250 os         1 8LS      -0.328100
     17 C9          -2.7410     0.8130    -0.4090 ca         1 8LS       0.148100
     18 C11         -0.6740     2.0390    -0.2930 ca         1 8LS      -0.015000
     19 C14          2.9810     1.3770    -0.3990 ce         1 8LS      -0.358800
     20 N16          5.1740     0.3710    -0.4590 n          1 8LS      -0.315000
     21 C18          5.6200    -2.0520    -0.5680 ca         1 8LS      -0.126300
     22 C19          6.1440    -2.5380     0.6280 ca         1 8LS      -0.090500
     23 C23          4.7280    -2.8450    -1.2840 ca         1 8LS      -0.090500
     24 O25          6.7140     0.8180     1.1380 o          1 8LS      -0.516000
     25 C27          3.3070     2.1070     0.7890 ce         1 8LS       0.551600
     26 N28          2.4540     2.7330     1.5170 nf         1 8LS      -0.631100
     27 C29          1.0960     2.6700     1.1940 c          1 8LS       0.702400
     28 O30          0.2820     3.1430     1.9670 o          1 8LS      -0.507000
     29 C31         -5.3070    -1.6520     0.1350 ca         1 8LS       0.312300
     30 N32         -5.2880    -1.5320     1.4560 nb         1 8LS      -0.624000
     31 C33         -5.8470    -2.4690     2.2060 ca         1 8LS       0.326900
     32 C34         -6.4690    -3.5910     1.6750 ca         1 8LS      -0.134000
     33 C35         -6.5080    -3.7340     0.2990 ca         1 8LS      -0.117000
     34 C36         -5.9170    -2.7450    -0.4610 ca         1 8LS       0.129000
     35 F37         -5.9380    -2.8490    -1.7970 f          1 8LS      -0.171000
     36 H1          -5.3010     2.7950    -1.1830 hc         1 8LS       0.053700
     37 H2          -4.9230     1.6480    -2.4500 hc         1 8LS       0.053700
     38 H3          -5.6420     1.0190     0.4530 hc         1 8LS       0.066200
     39 H4          -6.5040     0.5330    -1.0020 hc         1 8LS       0.066200
     40 H5          -4.5800    -0.8380    -1.7160 h1         1 8LS       0.061700
     41 H6          -0.9160     0.0340     0.4120 ha         1 8LS       0.137000
     42 H7           1.2360     0.6620    -1.4120 h1         1 8LS       0.049700
     43 H8           1.6690     2.3210    -1.8010 h1         1 8LS       0.049700
     44 H9           3.6650    -0.0190    -1.8230 h4         1 8LS       0.199000
     45 H10          5.8490    -0.6180    -2.1500 h1         1 8LS       0.071700
     46 H11          7.0360    -0.4590    -0.8700 h1         1 8LS       0.071700
     47 H13          4.5920    -5.5470     0.7530 ha         1 8LS       0.116000
     48 H14          3.6600    -4.7020    -1.3780 ha         1 8LS       0.117500
     49 H15          4.8700     2.2290     2.2480 hc         1 8LS       0.107700
     50 H16          5.1610     3.0860     0.7510 hc         1 8LS       0.107700
     51 H20         -3.0950     3.9000    -1.7010 ha         1 8LS       0.111000
     52 H21          6.8480    -1.9360     1.1880 ha         1 8LS       0.117000
     53 H22          4.3240    -2.4900    -2.2260 ha         1 8LS       0.117000
     54 H23         -5.8020    -2.3230     3.2790 h4         1 8LS       0.030100
     55 H24         -6.9140    -4.3330     2.3230 ha         1 8LS       0.130000
     56 H25         -6.9780    -4.5860    -0.1730 ha         1 8LS       0.138000
     57 C17          5.9910    -0.6820    -1.0710 c3         1 8LS       0.143300
     58 C1          -0.4950     4.4140    -1.1510 c3         1 8LS      -0.040800
     59 H12          6.1950    -4.1560     2.0300 ha         1 8LS       0.117500
     60 H17         -0.2160     4.9050    -0.2180 hc         1 8LS       0.043367
     61 H18          0.4260     4.2320    -1.7080 hc         1 8LS       0.043367
     62 H19         -1.0900     5.1200    -1.7280 hc         1 8LS       0.043367
@<TRIPOS>BOND
     1     1     2 1   
     2     1    15 ar  
     3     1    17 ar  
     4     2     3 1   
     5     2    36 1   
     6     2    37 1   
     7     3     4 1   
     8     3    38 1   
     9     3    39 1   
    10     4    16 1   
    11     4    29 1   
    12     4    40 1   
    13     5    17 ar  
    14     5    18 ar  
    15     5    41 1   
    16     6     7 1   
    17     6    18 1   
    18     6    27 1   
    19     7    19 1   
    20     7    42 1   
    21     7    43 1   
    22     8    19 2   
    23     8    20 1   
    24     8    44 1   
    25     9    10 ar  
    26     9    22 ar  
    27     9    59 1   
    28    10    11 ar  
    29    10    47 1   
    30    11    23 ar  
    31    11    48 1   
    32    12    13 1   
    33    12    20 1   
    34    12    24 2   
    35    13    25 1   
    36    13    49 1   
    37    13    50 1   
    38    14    15 ar  
    39    14    18 ar  
    40    14    58 1   
    41    15    51 1   
    42    16    17 1   
    43    19    25 1   
    44    20    57 1   
    45    21    22 ar  
    46    21    23 ar  
    47    21    57 1   
    48    22    52 1   
    49    23    53 1   
    50    25    26 2   
    51    26    27 1   
    52    27    28 2   
    53    29    30 ar  
    54    29    34 ar  
    55    30    31 ar  
    56    31    32 ar  
    57    31    54 1   
    58    32    33 ar  
    59    32    55 1   
    60    33    34 ar  
    61    33    56 1   
    62    34    35 1   
    63    45    57 1   
    64    46    57 1   
    65    58    60 1   
    66    58    61 1   
    67    58    62 1   
@<TRIPOS>SUBSTRUCTURE
     1 8LS         1 TEMP              0 ****  ****    0 ROOT
