@<TRIPOS>MOLECULE
8LT
   73    75     1     0     0
SMALL
bcc


@<TRIPOS>ATOM
      1 C10        -13.8950    19.2300   -19.2200 c5         1 8LT       0.141100
      2 C12        -13.3160    19.8870   -17.9310 c5         1 8LT      -0.115700
      3 C13        -14.4790    20.3020   -17.0030 c3         1 8LT      -0.061400
      4 C14        -14.1290    21.1850   -15.8070 c3         1 8LT      -0.078400
      5 C15        -15.3060    21.3750   -14.8470 c3         1 8LT      -0.061700
      6 C01        -18.8300    25.7570   -18.9580 c3         1 8LT       0.124700
      7 C03        -17.0510    24.7400   -20.1520 ca         1 8LT       0.148100
      8 C04        -16.3430    24.4480   -18.9860 ca         1 8LT      -0.192000
      9 C05        -15.1140    23.8070   -19.0680 ca         1 8LT      -0.077500
     10 C06        -14.5630    23.4440   -20.2910 ca         1 8LT      -0.159300
     11 N08        -13.3280    21.4410   -19.6610 n          1 8LT      -0.470800
     12 C09        -14.2690    20.4280   -20.0850 c5         1 8LT       0.097000
     13 O11        -15.0070    18.4080   -19.0330 oh         1 8LT      -0.582800
     14 C16        -14.8640    22.1820   -13.6300 c3         1 8LT      -0.088600
     15 C17        -16.4980    22.0480   -15.5220 c3         1 8LT      -0.088600
     16 C18        -12.7320    21.1820   -18.4880 c          1 8LT       0.736500
     17 O19        -11.9190    21.9050   -17.9250 o          1 8LT      -0.646500
     18 C20        -12.2920    18.9840   -17.2830 ca         1 8LT      -0.047300
     19 C21        -12.5790    18.2540   -16.1390 ca         1 8LT      -0.109000
     20 C22        -11.6850    17.3360   -15.6000 ca         1 8LT      -0.072000
     21 C23        -10.4790    17.1450   -16.2430 ca         1 8LT      -0.224500
     22 C24        -10.1470    17.8440   -17.3960 ca         1 8LT      -0.136000
     23 C25        -11.0460    18.7690   -17.9100 ca         1 8LT       0.154100
     24 O26        -10.8210    19.4740   -19.0260 os         1 8LT      -0.347900
     25 C27         -9.5270    19.5530   -19.6350 c3         1 8LT       0.115100
     26 C28         -9.3840    18.4860   -20.7030 c3         1 8LT      -0.119100
     27 C29         -9.4160    20.9560   -20.2120 c3         1 8LT       0.145400
     28 O30         -9.3890    21.9630   -19.2400 oh         1 8LT      -0.606800
     29 S31         -9.3190    15.9610   -15.6070 sy         1 8LT       1.086300
     30 C32         -8.1700    16.9580   -14.6840 c3         1 8LT      -0.222300
     31 O33        -10.0200    15.0830   -14.6740 o          1 8LT      -0.594800
     32 O34         -8.6110    15.3580   -16.7340 o          1 8LT      -0.594800
     33 C35        -15.2810    23.7400   -21.4450 ca         1 8LT      -0.077500
     34 C36        -16.5060    24.3830   -21.3850 ca         1 8LT      -0.192000
     35 H1         -13.0910    18.6800   -19.7220 h1         1 8LT       0.057700
     36 H2         -15.2210    20.8210   -17.6140 hc         1 8LT       0.052700
     37 H3         -14.9900    19.4010   -16.6530 hc         1 8LT       0.052700
     38 H4         -13.2890    20.7620   -15.2490 hc         1 8LT       0.052200
     39 H5         -13.8020    22.1710   -16.1480 hc         1 8LT       0.052200
     40 H6         -15.6230    20.3830   -14.5020 hc         1 8LT       0.041700
     41 H7         -19.7780    26.2290   -19.2080 h1         1 8LT       0.042033
     42 H8         -19.0240    24.9130   -18.2920 h1         1 8LT       0.042033
     43 H9         -18.2050    26.4840   -18.4330 h1         1 8LT       0.042033
     44 H11        -14.5850    23.5890   -18.1470 ha         1 8LT       0.134500
     45 H14        -15.3020    20.7460   -19.9090 h1         1 8LT       0.063200
     46 H15        -14.1580    20.2240   -21.1520 h1         1 8LT       0.063200
     47 H16        -14.7110    17.5660   -18.6710 ho         1 8LT       0.417000
     48 H17        -15.6760    22.2940   -12.9100 hc         1 8LT       0.033033
     49 H18        -14.0270    21.7060   -13.1160 hc         1 8LT       0.033033
     50 H19        -14.5440    23.1840   -13.9260 hc         1 8LT       0.033033
     51 H20        -17.3060    22.2180   -14.8090 hc         1 8LT       0.033033
     52 H21        -16.2090    23.0200   -15.9340 hc         1 8LT       0.033033
     53 H22        -16.9060    21.4520   -16.3390 hc         1 8LT       0.033033
     54 H23        -13.5280    18.3880   -15.6400 ha         1 8LT       0.145000
     55 H24        -11.9450    16.7880   -14.7060 ha         1 8LT       0.161000
     56 H25         -9.2040    17.6470   -17.8880 ha         1 8LT       0.157000
     57 H26         -8.7530    19.4330   -18.8690 h1         1 8LT       0.059700
     58 H27         -9.5190    17.4840   -20.2950 hc         1 8LT       0.050367
     59 H28        -10.1170    18.6310   -21.4990 hc         1 8LT       0.050367
     60 H29         -8.3890    18.5310   -21.1450 hc         1 8LT       0.050367
     61 H30         -8.4760    21.0100   -20.7660 h1         1 8LT       0.045700
     62 H31        -10.2230    21.1020   -20.9450 h1         1 8LT       0.045700
     63 H32        -10.2540    22.0030   -18.8000 ho         1 8LT       0.443000
     64 H33         -8.7020    17.4700   -13.8850 h1         1 8LT       0.104033
     65 H34         -7.4180    16.2890   -14.2660 h1         1 8LT       0.104033
     66 H35         -7.7000    17.6790   -15.3490 h1         1 8LT       0.104033
     67 H36        -14.8800    23.4600   -22.4130 ha         1 8LT       0.134500
     68 H37        -17.0520    24.6050   -22.2940 ha         1 8LT       0.142000
     69 C07        -13.2490    22.7070   -20.3550 c3         1 8LT       0.158300
     70 H10        -16.7310    24.7060   -18.0090 ha         1 8LT       0.142000
     71 O02        -18.2510    25.3490   -20.1810 os         1 8LT      -0.316900
     72 H12        -12.9720    22.5260   -21.3970 h1         1 8LT       0.066200
     73 H13        -12.4450    23.2880   -19.9030 h1         1 8LT       0.066200
@<TRIPOS>BOND
     1     1     2 1   
     2     1    12 1   
     3     1    13 1   
     4     1    35 1   
     5     2     3 1   
     6     2    16 1   
     7     2    18 1   
     8     3     4 1   
     9     3    36 1   
    10     3    37 1   
    11     4     5 1   
    12     4    38 1   
    13     4    39 1   
    14     5    14 1   
    15     5    15 1   
    16     5    40 1   
    17     6    41 1   
    18     6    42 1   
    19     6    43 1   
    20     6    71 1   
    21     7     8 ar  
    22     7    34 ar  
    23     7    71 1   
    24     8     9 ar  
    25     8    70 1   
    26     9    10 ar  
    27     9    44 1   
    28    10    33 ar  
    29    10    69 1   
    30    11    12 1   
    31    11    16 1   
    32    11    69 1   
    33    12    45 1   
    34    12    46 1   
    35    13    47 1   
    36    14    48 1   
    37    14    49 1   
    38    14    50 1   
    39    15    51 1   
    40    15    52 1   
    41    15    53 1   
    42    16    17 2   
    43    18    19 ar  
    44    18    23 ar  
    45    19    20 ar  
    46    19    54 1   
    47    20    21 ar  
    48    20    55 1   
    49    21    22 ar  
    50    21    29 1   
    51    22    23 ar  
    52    22    56 1   
    53    23    24 1   
    54    24    25 1   
    55    25    26 1   
    56    25    27 1   
    57    25    57 1   
    58    26    58 1   
    59    26    59 1   
    60    26    60 1   
    61    27    28 1   
    62    27    61 1   
    63    27    62 1   
    64    28    63 1   
    65    29    30 1   
    66    29    31 2   
    67    29    32 2   
    68    30    64 1   
    69    30    65 1   
    70    30    66 1   
    71    33    34 ar  
    72    33    67 1   
    73    34    68 1   
    74    69    72 1   
    75    69    73 1   
@<TRIPOS>SUBSTRUCTURE
     1 8LT         1 TEMP              0 ****  ****    0 ROOT
