@<TRIPOS>MOLECULE
8LT
   73    75     1     0     0
SMALL
No Charge or Current Charge


@<TRIPOS>ATOM
      1 C10        -13.7400    18.8120   -19.5740 c5         1 8LT       0.164300
      2 C12        -13.4460    19.6630   -18.2830 c5         1 8LT      -0.115700
      3 C13        -14.7470    20.0180   -17.4670 c3         1 8LT      -0.061400
      4 C14        -14.5420    20.9850   -16.2690 c3         1 8LT      -0.078400
      5 C15        -15.8250    21.2770   -15.4430 c3         1 8LT      -0.061700
      6 C01        -17.6320    26.4920   -17.5190 c3         1 8LT       0.147900
      7 C03        -16.7710    24.8420   -19.1390 ca         1 8LT       0.148100
      8 C04        -15.4420    24.9720   -18.6810 ca         1 8LT      -0.174000
      9 C05        -14.4230    24.1890   -19.2500 ca         1 8LT      -0.059500
     10 C06        -14.7170    23.2750   -20.2790 ca         1 8LT      -0.159300
     11 N08        -13.5850    21.0960   -20.1340 n          1 8LT      -0.403800
     12 C09        -14.2880    19.8800   -20.5750 c5         1 8LT       0.097000
     13 O11        -14.6650    17.7450   -19.3450 oh         1 8LT      -0.645000
     14 C16        -15.4850    22.0760   -14.1640 c3         1 8LT      -0.088600
     15 C17        -16.9170    22.0070   -16.2650 c3         1 8LT      -0.088600
     16 C18        -12.9470    20.9910   -18.8990 c          1 8LT       0.594000
     17 O19        -12.1610    21.8160   -18.4460 o          1 8LT      -0.571000
     18 C20        -12.3430    18.8620   -17.5190 ca         1 8LT      -0.047300
     19 C21        -12.6640    18.1410   -16.3420 ca         1 8LT      -0.091000
     20 C22        -11.6960    17.4100   -15.6370 ca         1 8LT      -0.054000
     21 C23        -10.3690    17.3640   -16.0950 ca         1 8LT      -0.224500
     22 C24        -10.0260    18.0600   -17.2710 ca         1 8LT      -0.118000
     23 C25        -10.9980    18.7960   -17.9880 ca         1 8LT       0.154100
     24 O26        -10.6720    19.4690   -19.1540 os         1 8LT      -0.371100
     25 C27         -9.3350    19.6390   -19.6610 c3         1 8LT       0.138300
     26 C28         -8.9930    18.4050   -20.5240 c3         1 8LT      -0.119100
     27 C29         -9.3360    20.9570   -20.4790 c3         1 8LT       0.168600
     28 O30         -9.6730    22.0780   -19.6410 oh         1 8LT      -0.669000
     29 S31         -9.1180    16.4300   -15.1760 sy         1 8LT       1.055500
     30 C32         -8.4460    17.6510   -14.0500 c3         1 8LT      -0.333100
     31 O33         -9.7890    15.4190   -14.3470 o          1 8LT      -0.524000
     32 O34         -8.0290    16.0630   -16.0910 o          1 8LT      -0.524000
     33 C35        -16.0420    23.1500   -20.7370 ca         1 8LT      -0.059500
     34 C36        -17.0610    23.9340   -20.1690 ca         1 8LT      -0.174000
     35 H1         -12.8070    18.4050   -19.9880 h1         1 8LT       0.057700
     36 H2         -15.4720    20.4820   -18.1450 hc         1 8LT       0.052700
     37 H3         -15.2440    19.1090   -17.1100 hc         1 8LT       0.052700
     38 H4         -13.7800    20.5680   -15.6000 hc         1 8LT       0.052200
     39 H5         -14.1430    21.9400   -16.6310 hc         1 8LT       0.052200
     40 H6         -16.2420    20.3150   -15.1200 hc         1 8LT       0.041700
     41 H7         -18.5880    26.9570   -17.2490 h1         1 8LT       0.042033
     42 H8         -17.2430    25.9730   -16.6340 h1         1 8LT       0.042033
     43 H9         -16.9320    27.2910   -17.7960 h1         1 8LT       0.042033
     44 H11        -13.4040    24.2850   -18.8800 ha         1 8LT       0.116500
     45 H14        -15.3760    20.0040   -20.4870 h1         1 8LT       0.063200
     46 H15        -14.0480    19.6220   -21.6150 h1         1 8LT       0.063200
     47 H16        -14.2440    17.1430   -18.6930 ho         1 8LT       0.456000
     48 H17        -16.3830    22.2360   -13.5550 hc         1 8LT       0.033033
     49 H18        -14.7550    21.5340   -13.5500 hc         1 8LT       0.033033
     50 H19        -15.0620    23.0560   -14.4160 hc         1 8LT       0.033033
     51 H20        -17.7810    22.2460   -15.6330 hc         1 8LT       0.033033
     52 H21        -16.5300    22.9450   -16.6820 hc         1 8LT       0.033033
     53 H22        -17.2790    21.3850   -17.0910 hc         1 8LT       0.033033
     54 H23        -13.6750    18.1320   -15.9470 ha         1 8LT       0.127000
     55 H24        -11.9870    16.8780   -14.7320 ha         1 8LT       0.143000
     56 H25         -8.9980    18.0130   -17.6190 ha         1 8LT       0.139000
     57 H26         -8.6040    19.7510   -18.8500 h1         1 8LT       0.059700
     58 H27         -9.0120    17.4860   -19.9280 hc         1 8LT       0.050367
     59 H28         -9.7120    18.2960   -21.3450 hc         1 8LT       0.050367
     60 H29         -7.9910    18.5080   -20.9570 hc         1 8LT       0.050367
     61 H30         -8.3420    21.1020   -20.9230 h1         1 8LT       0.045700
     62 H31        -10.0570    20.8670   -21.3020 h1         1 8LT       0.045700
     63 H32        -10.5310    21.8520   -19.1920 ho         1 8LT       0.482000
     64 H33         -9.2620    18.0160   -13.4170 h1         1 8LT       0.104033
     65 H34         -7.6710    17.1690   -13.4460 h1         1 8LT       0.104033
     66 H35         -8.0240    18.4680   -14.6450 h1         1 8LT       0.104033
     67 H36        -16.2850    22.4380   -21.5230 ha         1 8LT       0.116500
     68 H37        -18.0840    23.8300   -20.5220 ha         1 8LT       0.124000
     69 C07        -13.6250    22.3790   -20.8470 c3         1 8LT       0.158300
     70 H10        -15.1840    25.6630   -17.8850 ha         1 8LT       0.124000
     71 O02        -17.8160    25.5730   -18.6100 os         1 8LT      -0.340100
     72 H12        -13.8160    22.1930   -21.9120 h1         1 8LT       0.066200
     73 H13        -12.6500    22.8780   -20.7710 h1         1 8LT       0.066200
@<TRIPOS>BOND
     1     1     2 1   
     2     1    12 1   
     3     1    13 1   
     4     1    35 1   
     5     2     3 1   
     6     2    16 1   
     7     2    18 1   
     8     3     4 1   
     9     3    36 1   
    10     3    37 1   
    11     4     5 1   
    12     4    38 1   
    13     4    39 1   
    14     5    14 1   
    15     5    15 1   
    16     5    40 1   
    17     6    41 1   
    18     6    42 1   
    19     6    43 1   
    20     6    71 1   
    21     7     8 ar  
    22     7    34 ar  
    23     7    71 1   
    24     8     9 ar  
    25     8    70 1   
    26     9    10 ar  
    27     9    44 1   
    28    10    33 ar  
    29    10    69 1   
    30    11    12 1   
    31    11    16 1   
    32    11    69 1   
    33    12    45 1   
    34    12    46 1   
    35    13    47 1   
    36    14    48 1   
    37    14    49 1   
    38    14    50 1   
    39    15    51 1   
    40    15    52 1   
    41    15    53 1   
    42    16    17 2   
    43    18    19 ar  
    44    18    23 ar  
    45    19    20 ar  
    46    19    54 1   
    47    20    21 ar  
    48    20    55 1   
    49    21    22 ar  
    50    21    29 1   
    51    22    23 ar  
    52    22    56 1   
    53    23    24 1   
    54    24    25 1   
    55    25    26 1   
    56    25    27 1   
    57    25    57 1   
    58    26    58 1   
    59    26    59 1   
    60    26    60 1   
    61    27    28 1   
    62    27    61 1   
    63    27    62 1   
    64    28    63 1   
    65    29    30 1   
    66    29    31 2   
    67    29    32 2   
    68    30    64 1   
    69    30    65 1   
    70    30    66 1   
    71    33    34 ar  
    72    33    67 1   
    73    34    68 1   
    74    69    72 1   
    75    69    73 1   
@<TRIPOS>SUBSTRUCTURE
     1 8LT         1 TEMP              0 ****  ****    0 ROOT
