@<TRIPOS>MOLECULE
8LU
   72    76     1     0     0
SMALL
bcc


@<TRIPOS>ATOM
      1 F1          -9.2930    -1.0320    -0.4620 f          1 8LU      -0.126900
      2 C1          -7.9580    -1.0630    -0.3950 ca         1 8LU       0.113900
      3 C2          -7.2390     0.1150    -0.3710 ca         1 8LU      -0.133000
      4 C3          -5.8600     0.0680    -0.3040 ca         1 8LU      -0.162000
      5 C4          -7.3020    -2.2770    -0.3520 ca         1 8LU       0.002400
      6 CL1         -8.2240    -3.7330    -0.3850 cl         1 8LU      -0.078400
      7 C5          -5.9180    -2.3380    -0.2840 ca         1 8LU      -0.118000
      8 C6          -5.1800    -1.1550    -0.2610 ca         1 8LU       0.163600
      9 N1          -3.7900    -1.0830    -0.2020 nu         1 8LU      -0.733300
     10 C7          -2.8490    -2.0550    -0.1440 ca         1 8LU       0.740200
     11 N2          -3.2170    -3.3190    -0.1210 nb         1 8LU      -0.805000
     12 C8          -2.2570    -4.2500    -0.0590 ca         1 8LU       0.696900
     13 N3          -0.9710    -4.0630    -0.0130 nb         1 8LU      -0.732000
     14 C9          -0.5570    -2.7690    -0.0370 ca         1 8LU       0.462600
     15 C10         -1.4610    -1.6930    -0.1070 ca         1 8LU      -0.306600
     16 C11         -0.9720    -0.3710    -0.1350 ca         1 8LU      -0.107000
     17 C12          0.3760    -0.1180    -0.0930 ca         1 8LU       0.043600
     18 N4           0.9500     1.1510    -0.1140 ns         1 8LU      -0.460100
     19 C13          0.3550     2.3440    -0.3610 c          1 8LU       0.670100
     20 C14          1.3510     3.4990    -0.4280 c5         1 8LU       0.029700
     21 C15          1.9240     3.6620    -1.8450 c5         1 8LU      -0.085400
     22 C16          0.9380     4.6080    -2.5210 c5         1 8LU      -0.093400
     23 C17          0.5510     5.5720    -1.4050 c5         1 8LU       0.108000
     24 N5           0.6810     4.7580    -0.1990 n          1 8LU      -0.473800
     25 C18          0.1870     5.0530     1.0120 c          1 8LU       0.646100
     26 C19         -0.5200     6.3920     1.1110 c3         1 8LU       0.094900
     27 F2          -0.8860     6.6110     2.4190 f          1 8LU      -0.217300
     28 O1           0.2950     4.3080     1.9720 o          1 8LU      -0.568100
     29 O2          -0.8340     2.4960    -0.5560 o          1 8LU      -0.582100
     30 C20          1.2890    -1.2170    -0.0160 ca         1 8LU       0.143100
     31 O3           2.5770    -0.8650     0.0240 os         1 8LU      -0.345900
     32 C21          3.5820    -1.8720     0.0730 c3         1 8LU       0.144400
     33 C22          4.9290    -1.1820     0.0860 c3         1 8LU      -0.085400
     34 C23          6.0530    -2.2120     0.0990 c3         1 8LU       0.171800
     35 N6           7.3630    -1.6170     0.2780 n3         1 8LU      -0.715600
     36 C24          7.7870    -0.8200    -0.8610 c6         1 8LU       0.125800
     37 C25          9.1490    -0.2110    -0.5900 c6         1 8LU       0.129900
     38 O4          10.1160    -1.1940    -0.2940 os         1 8LU      -0.401600
     39 C26          9.7120    -1.9760     0.8080 c6         1 8LU       0.129900
     40 C27          8.3640    -2.6270     0.5650 c6         1 8LU       0.125800
     41 C28          0.8250    -2.5050     0.0110 ca         1 8LU      -0.266300
     42 H1          -7.7540     1.0660    -0.4050 ha         1 8LU       0.154000
     43 H2          -5.3040     0.9970    -0.2870 ha         1 8LU       0.140000
     44 H3          -5.4230    -3.2950    -0.2500 ha         1 8LU       0.191000
     45 H4          -3.4450    -0.1370    -0.1980 hn         1 8LU       0.451800
     46 H5          -2.6080    -5.2770    -0.0420 h5         1 8LU       0.048100
     47 H6          -1.6420     0.4720    -0.1890 ha         1 8LU       0.164000
     48 H7           1.9490     1.1700     0.0350 hn         1 8LU       0.338500
     49 H8           2.1460     3.3410     0.3060 h1         1 8LU       0.085700
     50 H9           2.9110     4.1200    -1.7750 hc         1 8LU       0.061700
     51 H10          2.0370     2.7110    -2.3650 hc         1 8LU       0.061700
     52 H11          1.3730     5.1270    -3.3730 hc         1 8LU       0.065200
     53 H12          0.0610     4.0640    -2.8720 hc         1 8LU       0.065200
     54 H13          1.2320     6.4260    -1.3670 h1         1 8LU       0.049200
     55 H14         -0.4650     5.9500    -1.5270 h1         1 8LU       0.049200
     56 H15          0.1330     7.2040     0.7810 h1         1 8LU       0.059200
     57 H16         -1.4160     6.3960     0.4850 h1         1 8LU       0.059200
     58 H17          3.4520    -2.4850     0.9710 h1         1 8LU       0.044700
     59 H18          3.4900    -2.5300    -0.7970 h1         1 8LU       0.044700
     60 H19          5.0030    -0.5360    -0.7920 hc         1 8LU       0.061200
     61 H20          5.0140    -0.5460     0.9700 hc         1 8LU       0.061200
     62 H21          5.8900    -2.8990     0.9350 h1         1 8LU       0.034700
     63 H22          6.0060    -2.8240    -0.8180 h1         1 8LU       0.034700
     64 H24          7.8210    -1.4210    -1.7870 h1         1 8LU       0.041200
     65 H25          7.0820    -0.0050    -1.0320 h1         1 8LU       0.041200
     66 H26          9.4960     0.3350    -1.4680 h1         1 8LU       0.051950
     67 H27          9.0630     0.5040     0.2410 h1         1 8LU       0.051950
     68 H28         10.4750    -2.7410     0.9630 h1         1 8LU       0.051950
     69 H29          9.6620    -1.3620     1.7180 h1         1 8LU       0.051950
     70 H30          8.0740    -3.1790     1.4620 h1         1 8LU       0.041200
     71 H31          8.4540    -3.3620    -0.2550 h1         1 8LU       0.041200
     72 H32          1.4950    -3.3520     0.0640 ha         1 8LU       0.159000
@<TRIPOS>BOND
     1     1     2 1   
     2     2     3 ar  
     3     2     5 ar  
     4     3     4 ar  
     5     3    42 1   
     6     4     8 ar  
     7     4    43 1   
     8     5     6 1   
     9     5     7 ar  
    10     7     8 ar  
    11     7    44 1   
    12     8     9 1   
    13     9    10 1   
    14     9    45 1   
    15    10    11 ar  
    16    10    15 ar  
    17    11    12 ar  
    18    12    13 ar  
    19    12    46 1   
    20    13    14 ar  
    21    14    15 ar  
    22    14    41 ar  
    23    15    16 ar  
    24    16    17 ar  
    25    16    47 1   
    26    17    18 1   
    27    17    30 ar  
    28    18    19 1   
    29    18    48 1   
    30    19    20 1   
    31    19    29 2   
    32    20    21 1   
    33    20    24 1   
    34    20    49 1   
    35    21    22 1   
    36    21    50 1   
    37    21    51 1   
    38    22    23 1   
    39    22    52 1   
    40    22    53 1   
    41    23    24 1   
    42    23    54 1   
    43    23    55 1   
    44    24    25 1   
    45    25    26 1   
    46    25    28 2   
    47    26    27 1   
    48    26    56 1   
    49    26    57 1   
    50    30    31 1   
    51    30    41 ar  
    52    31    32 1   
    53    32    33 1   
    54    32    58 1   
    55    32    59 1   
    56    33    34 1   
    57    33    60 1   
    58    33    61 1   
    59    34    35 1   
    60    34    62 1   
    61    34    63 1   
    62    35    36 1   
    63    35    40 1   
    64    36    37 1   
    65    36    64 1   
    66    36    65 1   
    67    37    38 1   
    68    37    66 1   
    69    37    67 1   
    70    38    39 1   
    71    39    40 1   
    72    39    68 1   
    73    39    69 1   
    74    40    70 1   
    75    40    71 1   
    76    41    72 1   
@<TRIPOS>SUBSTRUCTURE
     1 8LU         1 TEMP              0 ****  ****    0 ROOT
