@<TRIPOS>MOLECULE
8LU
   72    76     1     0     0
SMALL
No Charge or Current Charge


@<TRIPOS>ATOM
      1 F1          -9.4570    -1.2080    -0.9660 f          1 8LU      -0.162000
      2 C1          -8.1240    -1.2230    -0.7330 ca         1 8LU       0.149000
      3 C2          -7.5440    -0.2010     0.0340 ca         1 8LU      -0.115000
      4 C3          -6.1580    -0.2100     0.2780 ca         1 8LU      -0.144000
      5 C4          -7.3180    -2.2500    -1.2620 ca         1 8LU       0.094000
      6 Cl1         -8.0240    -3.5330    -2.2440 cl         1 8LU      -0.170000
      7 C5          -5.9350    -2.2530    -1.0140 ca         1 8LU      -0.100000
      8 C6          -5.3470    -1.2400    -0.2320 ca         1 8LU       0.302000
      9 N1          -3.9730    -1.1990     0.0250 nu         1 8LU      -0.926900
     10 C7          -2.9670    -2.1660     0.0870 ca         1 8LU       0.411900
     11 N2          -3.3690    -3.4410     0.2190 nb         1 8LU      -0.279000
     12 C8          -2.4050    -4.3720     0.3230 ca         1 8LU       0.170900
     13 N3          -1.0760    -4.1550     0.3180 nb         1 8LU      -0.206000
     14 C9          -0.6570    -2.8790     0.1950 ca         1 8LU       0.069000
     15 C10         -1.5910    -1.8230     0.0740 ca         1 8LU      -0.176000
     16 C11         -1.1340    -0.4900    -0.0650 ca         1 8LU      -0.089000
     17 C12          0.2480    -0.2050    -0.0710 ca         1 8LU      -0.049000
     18 N4           0.7720     1.1140    -0.2060 ns         1 8LU      -0.134000
     19 C13          0.1690     2.3620    -0.2970 c          1 8LU       0.603100
     20 C14          1.2970     3.4370    -0.4350 c5         1 8LU       0.029700
     21 C15          1.8010     3.5050    -1.9110 c5         1 8LU      -0.085400
     22 C16          0.7990     4.4950    -2.5580 c5         1 8LU      -0.093400
     23 C17          0.7150     5.6130    -1.4880 c5         1 8LU       0.108000
     24 N5           0.8310     4.8390    -0.2320 n          1 8LU      -0.406800
     25 C18          0.5470     5.3660     1.0480 c          1 8LU       0.579100
     26 C19          0.0730     6.8370     1.1370 c3         1 8LU       0.113600
     27 F2          -0.1070     7.2710     2.4150 f          1 8LU      -0.236000
     28 O1           0.6830     4.6610     2.0430 o          1 8LU      -0.568100
     29 O2          -1.0400     2.5720    -0.2460 o          1 8LU      -0.582100
     30 C20          1.1730    -1.2620     0.0530 ca         1 8LU       0.143100
     31 O3           2.5210    -0.9480     0.0360 os         1 8LU      -0.369100
     32 C21          3.5490    -1.9470     0.1480 c3         1 8LU       0.167600
     33 C22          4.9050    -1.2240     0.0860 c3         1 8LU      -0.085400
     34 C23          6.0970    -2.1990     0.1890 c3         1 8LU       0.171800
     35 N6           7.4260    -1.5450     0.2880 n3         1 8LU      -0.715600
     36 C24          7.7980    -0.7260    -0.9130 c6         1 8LU       0.125800
     37 C25          9.2040    -0.0720    -0.7560 c6         1 8LU       0.153100
     38 O4          10.2010    -1.0790    -0.4650 os         1 8LU      -0.448000
     39 C26          9.9020    -1.8260     0.7380 c6         1 8LU       0.153100
     40 C27          8.5140    -2.5220     0.6100 c6         1 8LU       0.125800
     41 C28          0.7160    -2.5890     0.1830 ca         1 8LU      -0.183000
     42 H1          -8.1670     0.5940     0.4370 ha         1 8LU       0.136000
     43 H2          -5.7160     0.5850     0.8740 ha         1 8LU       0.122000
     44 H3          -5.3240    -3.0370    -1.4470 ha         1 8LU       0.173000
     45 H4          -3.6470    -0.2800     0.3160 hn         1 8LU       0.507000
     46 H5          -2.7310    -5.4060     0.4260 h5         1 8LU       0.048100
     47 H6          -1.8530     0.3120    -0.1810 ha         1 8LU       0.146000
     48 H7           1.7830     1.1360    -0.2480 hn         1 8LU       0.172000
     49 H8           2.1120     3.1780     0.2550 h1         1 8LU       0.085700
     50 H9           2.8210     3.9050    -1.9540 hc         1 8LU       0.061700
     51 H10          1.8200     2.5310    -2.4130 hc         1 8LU       0.061700
     52 H11          1.1390     4.8720    -3.5290 hc         1 8LU       0.065200
     53 H12         -0.1800     4.0260    -2.7160 hc         1 8LU       0.065200
     54 H13          1.5480     6.3220    -1.5830 h1         1 8LU       0.049200
     55 H14         -0.2300     6.1680    -1.5600 h1         1 8LU       0.049200
     56 H15          0.8210     7.4750     0.6520 h1         1 8LU       0.059200
     57 H16         -0.8760     6.9310     0.5960 h1         1 8LU       0.059200
     58 H17          3.4640    -2.4880     1.1000 h1         1 8LU       0.044700
     59 H18          3.4810    -2.6690    -0.6760 h1         1 8LU       0.044700
     60 H19          4.9600    -0.6650    -0.8550 hc         1 8LU       0.061200
     61 H20          4.9630    -0.4980     0.9060 hc         1 8LU       0.061200
     62 H21          5.9400    -2.8200     1.0810 h1         1 8LU       0.034700
     63 H22          6.0760    -2.8750    -0.6780 h1         1 8LU       0.034700
     64 H24          7.8010    -1.3530    -1.8170 h1         1 8LU       0.041200
     65 H25          7.0680     0.0780    -1.0790 h1         1 8LU       0.041200
     66 H26          9.4790     0.4510    -1.6830 h1         1 8LU       0.051950
     67 H27          9.1850     0.6660     0.0590 h1         1 8LU       0.051950
     68 H28         10.6850    -2.5800     0.8990 h1         1 8LU       0.051950
     69 H29          9.9010    -1.1430     1.6000 h1         1 8LU       0.051950
     70 H30          8.2930    -3.0420     1.5530 h1         1 8LU       0.041200
     71 H31          8.5790    -3.2920    -0.1740 h1         1 8LU       0.041200
     72 H32          1.4170    -3.4130     0.2770 ha         1 8LU       0.141000
@<TRIPOS>BOND
     1     1     2 1   
     2     2     3 ar  
     3     2     5 ar  
     4     3     4 ar  
     5     3    42 1   
     6     4     8 ar  
     7     4    43 1   
     8     5     6 1   
     9     5     7 ar  
    10     7     8 ar  
    11     7    44 1   
    12     8     9 1   
    13     9    10 1   
    14     9    45 1   
    15    10    11 ar  
    16    10    15 ar  
    17    11    12 ar  
    18    12    13 ar  
    19    12    46 1   
    20    13    14 ar  
    21    14    15 ar  
    22    14    41 ar  
    23    15    16 ar  
    24    16    17 ar  
    25    16    47 1   
    26    17    18 1   
    27    17    30 ar  
    28    18    19 1   
    29    18    48 1   
    30    19    20 1   
    31    19    29 2   
    32    20    21 1   
    33    20    24 1   
    34    20    49 1   
    35    21    22 1   
    36    21    50 1   
    37    21    51 1   
    38    22    23 1   
    39    22    52 1   
    40    22    53 1   
    41    23    24 1   
    42    23    54 1   
    43    23    55 1   
    44    24    25 1   
    45    25    26 1   
    46    25    28 2   
    47    26    27 1   
    48    26    56 1   
    49    26    57 1   
    50    30    31 1   
    51    30    41 ar  
    52    31    32 1   
    53    32    33 1   
    54    32    58 1   
    55    32    59 1   
    56    33    34 1   
    57    33    60 1   
    58    33    61 1   
    59    34    35 1   
    60    34    62 1   
    61    34    63 1   
    62    35    36 1   
    63    35    40 1   
    64    36    37 1   
    65    36    64 1   
    66    36    65 1   
    67    37    38 1   
    68    37    66 1   
    69    37    67 1   
    70    38    39 1   
    71    39    40 1   
    72    39    68 1   
    73    39    69 1   
    74    40    70 1   
    75    40    71 1   
    76    41    72 1   
@<TRIPOS>SUBSTRUCTURE
     1 8LU         1 TEMP              0 ****  ****    0 ROOT
