@<TRIPOS>MOLECULE
8LW
   45    49     1     0     0
SMALL
No Charge or Current Charge


@<TRIPOS>ATOM
      1 CAK         -0.4280    -0.1400    -2.9200 c3         1 8LW      -0.044800
      2 CAJ         -1.3270    -0.1360    -1.6880 ca         1 8LW      -0.046300
      3 CAI         -2.7300    -0.0950    -1.8530 ca         1 8LW      -0.109000
      4 CAH         -3.5410    -0.1360    -0.7120 ca         1 8LW       0.016600
      5 NAF         -4.9220     0.1810    -0.5800 n          1 8LW      -0.292000
      6 CAG         -5.9230     0.0150    -1.6470 c3         1 8LW       0.105300
      7 CAD         -5.2490     0.3810     0.7680 c          1 8LW       0.597000
      8 OAE         -6.3580     0.5950     1.2400 o          1 8LW      -0.566000
      9 NAB         -4.0410     0.2370     1.4630 n          1 8LW      -0.289000
     10 CAC         -3.9470     0.1450     2.9300 c3         1 8LW       0.105300
     11 CAA         -2.9920    -0.0970     0.5630 ca         1 8LW       0.001600
     12 CBB         -1.6070    -0.0270     0.7550 ca         1 8LW      -0.081000
     13 CAL         -0.7680    -0.1040    -0.3780 ca         1 8LW       0.036600
     14 NAM          0.6560    -0.0790    -0.1890 n          1 8LW      -0.300600
     15 CAN          1.2940     1.1620    -0.0450 c          1 8LW       0.592600
     16 OAO          0.6570     2.2090    -0.0750 o          1 8LW      -0.506000
     17 CAP          2.7860     1.1750     0.1430 ca         1 8LW      -0.163600
     18 CAY          3.5150    -0.0280     0.1750 ca         1 8LW       0.021000
     19 CAQ          3.4710     2.4030     0.2890 ca         1 8LW      -0.018000
     20 CAR          4.8640     2.4250     0.4630 ca         1 8LW      -0.130000
     21 CAS          5.5890     1.2250     0.4940 ca         1 8LW      -0.056500
     22 CAT          4.9180    -0.0030     0.3510 ca         1 8LW      -0.062000
     23 CAU          5.6460    -1.2060     0.3820 ca         1 8LW      -0.056500
     24 CAV          4.9780    -2.4310     0.2390 ca         1 8LW      -0.130000
     25 CAW          3.5850    -2.4580     0.0650 ca         1 8LW      -0.018000
     26 CAX          2.8440    -1.2560     0.0310 ca         1 8LW      -0.163600
     27 CAZ          1.3520    -1.2960    -0.1550 c          1 8LW       0.592600
     28 OBA          0.7630    -2.3640    -0.2730 o          1 8LW      -0.506000
     29 H1           0.2090    -1.0320    -2.9400 hc         1 8LW       0.045367
     30 H2          -1.0100    -0.1340    -3.8490 hc         1 8LW       0.045367
     31 H3           0.2250     0.7410    -2.9360 hc         1 8LW       0.045367
     32 H4          -3.1750    -0.0250    -2.8420 ha         1 8LW       0.124000
     33 H5          -5.5580    -0.7030    -2.3930 h1         1 8LW       0.050700
     34 H6          -6.8650    -0.3600    -1.2270 h1         1 8LW       0.050700
     35 H7          -6.1040     0.9810    -2.1340 h1         1 8LW       0.050700
     36 H8          -4.8970    -0.2090     3.3490 h1         1 8LW       0.051367
     37 H9          -3.1530    -0.5570     3.2100 h1         1 8LW       0.051367
     38 H10         -3.7170     1.1350     3.3450 h1         1 8LW       0.051367
     39 H11         -1.1880     0.0930     1.7500 ha         1 8LW       0.131000
     40 H12          2.9260     3.3460     0.2670 ha         1 8LW       0.141000
     41 H13          5.3810     3.3750     0.5740 ha         1 8LW       0.125000
     42 H14          6.6680     1.2510     0.6300 ha         1 8LW       0.120000
     43 H15          6.7260    -1.1930     0.5170 ha         1 8LW       0.120000
     44 H16          5.5400    -3.3620     0.2640 ha         1 8LW       0.125000
     45 H17          3.0860    -3.4190    -0.0440 ha         1 8LW       0.141000
@<TRIPOS>BOND
     1     1     2 1   
     2     1    29 1   
     3     1    30 1   
     4     1    31 1   
     5     2     3 ar  
     6     2    13 ar  
     7     3     4 ar  
     8     3    32 1   
     9     4     5 1   
    10     4    11 ar  
    11     5     6 1   
    12     5     7 1   
    13     6    33 1   
    14     6    34 1   
    15     6    35 1   
    16     7     8 2   
    17     7     9 1   
    18     9    10 1   
    19     9    11 1   
    20    10    36 1   
    21    10    37 1   
    22    10    38 1   
    23    11    12 ar  
    24    12    13 ar  
    25    12    39 1   
    26    13    14 1   
    27    14    15 1   
    28    14    27 1   
    29    15    16 2   
    30    15    17 1   
    31    17    18 ar  
    32    17    19 ar  
    33    18    22 ar  
    34    18    26 ar  
    35    19    20 ar  
    36    19    40 1   
    37    20    21 ar  
    38    20    41 1   
    39    21    22 ar  
    40    21    42 1   
    41    22    23 ar  
    42    23    24 ar  
    43    23    43 1   
    44    24    25 ar  
    45    24    44 1   
    46    25    26 ar  
    47    25    45 1   
    48    26    27 1   
    49    27    28 2   
@<TRIPOS>SUBSTRUCTURE
     1 8LW         1 TEMP              0 ****  ****    0 ROOT
