@<TRIPOS>MOLECULE
8LW
   45    49     1     0     0
SMALL
bcc


@<TRIPOS>ATOM
      1 CAK         -0.3710    -0.0030    -2.8480 c3         1 8LW      -0.044800
      2 CAJ         -1.2800     0.0060    -1.6530 ca         1 8LW      -0.046300
      3 CAI         -2.6670     0.0140    -1.8270 ca         1 8LW      -0.127000
      4 CAH         -3.4740     0.0220    -0.7070 ca         1 8LW       0.016600
      5 NAF         -4.8420     0.0300    -0.5670 n          1 8LW      -0.359000
      6 CAG         -5.7920     0.0310    -1.6490 c3         1 8LW       0.105300
      7 CAD         -5.1760     0.0360     0.7700 c          1 8LW       0.806500
      8 OAE         -6.2990     0.0430     1.2420 o          1 8LW      -0.641500
      9 NAB         -3.9890     0.0320     1.4630 n          1 8LW      -0.356000
     10 CAC         -3.8730     0.0340     2.8980 c3         1 8LW       0.105300
     11 CAA         -2.9330     0.0230     0.5800 ca         1 8LW       0.001600
     12 CBB         -1.5700     0.0160     0.7770 ca         1 8LW      -0.099000
     13 CAL         -0.7650     0.0080    -0.3570 ca         1 8LW       0.036600
     14 NAM          0.6550     0.0010    -0.1720 n          1 8LW      -0.434600
     15 CAN          1.2910     1.2360    -0.1020 c          1 8LW       0.735100
     16 OAO          0.6480     2.2580    -0.1960 o          1 8LW      -0.581500
     17 CAP          2.7510     1.2170     0.0780 ca         1 8LW      -0.163600
     18 CAY          3.4350    -0.0130     0.1660 ca         1 8LW       0.021000
     19 CAQ          3.4470     2.4020     0.1540 ca         1 8LW      -0.036000
     20 CAR          4.8400     2.3990     0.3190 ca         1 8LW      -0.148000
     21 CAS          5.5240     1.2140     0.4030 ca         1 8LW      -0.074500
     22 CAT          4.8400    -0.0190     0.3310 ca         1 8LW      -0.062000
     23 CAU          5.5110    -1.2590     0.4150 ca         1 8LW      -0.074500
     24 CAV          4.8150    -2.4370     0.3410 ca         1 8LW      -0.148000
     25 CAW          3.4210    -2.4270     0.1760 ca         1 8LW      -0.036000
     26 CAX          2.7380    -1.2360     0.0890 ca         1 8LW      -0.163600
     27 CAZ          1.2780    -1.2400    -0.0920 c          1 8LW       0.735100
     28 OBA          0.6250    -2.2560    -0.1770 o          1 8LW      -0.581500
     29 H1           0.2700    -0.8860    -2.8650 hc         1 8LW       0.045367
     30 H2          -0.9480    -0.0050    -3.7710 hc         1 8LW       0.045367
     31 H3           0.2790     0.8730    -2.8730 hc         1 8LW       0.045367
     32 H4          -3.0880     0.0130    -2.8240 ha         1 8LW       0.142000
     33 H5          -5.6720    -0.8580    -2.2680 h1         1 8LW       0.050700
     34 H6          -6.7970     0.0370    -1.2400 h1         1 8LW       0.050700
     35 H7          -5.6640     0.9150    -2.2740 h1         1 8LW       0.050700
     36 H8          -4.8680     0.0420     3.3330 h1         1 8LW       0.051367
     37 H9          -3.3480    -0.8560     3.2440 h1         1 8LW       0.051367
     38 H10         -3.3360     0.9180     3.2400 h1         1 8LW       0.051367
     39 H11         -1.1340     0.0160     1.7680 ha         1 8LW       0.149000
     40 H12          2.9190     3.3430     0.0850 ha         1 8LW       0.159000
     41 H13          5.3710     3.3390     0.3770 ha         1 8LW       0.143000
     42 H14          6.6000     1.2120     0.5260 ha         1 8LW       0.138000
     43 H15          6.5870    -1.2660     0.5380 ha         1 8LW       0.138000
     44 H16          5.3360    -3.3820     0.4090 ha         1 8LW       0.143000
     45 H17          2.8830    -3.3630     0.1150 ha         1 8LW       0.159000
@<TRIPOS>BOND
     1     1     2 1   
     2     1    29 1   
     3     1    30 1   
     4     1    31 1   
     5     2     3 ar  
     6     2    13 ar  
     7     3     4 ar  
     8     3    32 1   
     9     4     5 1   
    10     4    11 ar  
    11     5     6 1   
    12     5     7 1   
    13     6    33 1   
    14     6    34 1   
    15     6    35 1   
    16     7     8 2   
    17     7     9 1   
    18     9    10 1   
    19     9    11 1   
    20    10    36 1   
    21    10    37 1   
    22    10    38 1   
    23    11    12 ar  
    24    12    13 ar  
    25    12    39 1   
    26    13    14 1   
    27    14    15 1   
    28    14    27 1   
    29    15    16 2   
    30    15    17 1   
    31    17    18 ar  
    32    17    19 ar  
    33    18    22 ar  
    34    18    26 ar  
    35    19    20 ar  
    36    19    40 1   
    37    20    21 ar  
    38    20    41 1   
    39    21    22 ar  
    40    21    42 1   
    41    22    23 ar  
    42    23    24 ar  
    43    23    43 1   
    44    24    25 ar  
    45    24    44 1   
    46    25    26 ar  
    47    25    45 1   
    48    26    27 1   
    49    27    28 2   
@<TRIPOS>SUBSTRUCTURE
     1 8LW         1 TEMP              0 ****  ****    0 ROOT
