@<TRIPOS>MOLECULE
8LX
   58    61     1     0     0
SMALL
No Charge or Current Charge


@<TRIPOS>ATOM
      1 CAE          6.5910    -0.1640     0.3660 c5         1 8LX      -0.036700
      2 CAF          5.3470    -0.3340     1.2730 c3         1 8LX       0.000900
      3 CAG          4.1300     0.4430     0.7820 ca         1 8LX      -0.140300
      4 CAH          7.8250    -0.9030     0.9330 c          1 8LX       0.575000
      5 CAI          3.0430    -0.2300     0.1910 ca         1 8LX      -0.058500
      6 CAJ          4.0860     1.8450     0.9160 ca         1 8LX      -0.058500
      7 CAK         -0.7810     4.3750    -1.0680 c3         1 8LX       0.225800
      8 CAL          1.8820     1.8900    -0.1300 ca         1 8LX       0.152100
      9 CAM          0.5990     3.9730    -0.4850 c3         1 8LX       0.135600
     10 CAN          1.9270     0.4940    -0.2620 ca         1 8LX      -0.172500
     11 CAO          2.9690     2.5680     0.4630 ca         1 8LX      -0.172500
     12 CAP          7.6810    -1.9610    -1.2200 c          1 8LX       0.592600
     13 CAR         -2.4600     4.6900     0.8060 c3         1 8LX       0.205100
     14 CAV         -5.3730    -1.0500     0.7620 ca         1 8LX       0.075100
     15 CAW         -5.3820    -2.2300     1.5240 ca         1 8LX      -0.067500
     16 CAX         -6.3160    -0.8730    -0.2700 ca         1 8LX      -0.067500
     17 CAY         -7.2510    -3.0780     0.2010 ca         1 8LX       0.142100
     18 CAZ         -6.3140    -3.2460     1.2450 ca         1 8LX      -0.164500
     19 NAA         -1.9630     3.8530    -0.3120 nh         1 8LX      -0.772300
     20 NAB          8.2550    -1.7810    -0.0080 ns         1 8LX      -0.483500
     21 CBA         -7.2470    -1.8890    -0.5480 ca         1 8LX      -0.164500
     22 CBB         -8.2790    -5.2890     0.5870 c3         1 8LX       0.148900
     23 OBC          0.7600     2.5440    -0.5930 os         1 8LX      -0.332100
     24 OBD          8.3560    -0.7710     2.0240 o          1 8LX      -0.487000
     25 OBE          8.0640    -2.7530    -2.0640 o          1 8LX      -0.464000
     26 OBG         -8.1890    -4.0380    -0.1190 os         1 8LX      -0.341100
     27 SBH          6.2640    -0.8530    -1.3440 ss         1 8LX      -0.259600
     28 N1          -2.1930     1.9660    -1.7200 nb         1 8LX      -0.268000
     29 C2          -2.6780     0.7270    -1.9220 ca         1 8LX       0.189900
     30 N3          -3.4260     0.0100    -1.0630 nb         1 8LX      -0.277000
     31 C4          -3.7220     0.5990     0.1130 ca         1 8LX       0.368300
     32 C5          -3.2540     1.8810     0.4190 ca         1 8LX      -0.319000
     33 C6          -2.4780     2.5510    -0.5390 ca         1 8LX       0.408900
     34 H1           6.8540     0.8980     0.2870 h1         1 8LX       0.114700
     35 H2           5.1040    -1.4010     1.3630 hc         1 8LX       0.066700
     36 H3           5.5920    -0.0040     2.2900 hc         1 8LX       0.066700
     37 H4           3.0640    -1.3120     0.0780 ha         1 8LX       0.115000
     38 H5           4.9200     2.3760     1.3720 ha         1 8LX       0.115000
     39 H6          -0.8200     5.4720    -1.0950 h1         1 8LX       0.078700
     40 H7          -0.8180     4.0640    -2.1200 h1         1 8LX       0.078700
     41 H8           1.3870     4.4900    -1.0460 h1         1 8LX       0.038200
     42 H9           0.6520     4.2920     0.5640 h1         1 8LX       0.038200
     43 H10          1.0910    -0.0300    -0.7180 ha         1 8LX       0.125000
     44 H11          2.9650     3.6480     0.5790 ha         1 8LX       0.125000
     45 H12         -3.5580     4.6900     0.8270 h1         1 8LX       0.042033
     46 H13         -2.0850     4.3110     1.7650 h1         1 8LX       0.042033
     47 H14         -2.1320     5.7320     0.6980 h1         1 8LX       0.042033
     48 H15         -4.6620    -2.3570     2.3290 ha         1 8LX       0.125500
     49 H16         -6.3290     0.0460    -0.8490 ha         1 8LX       0.125500
     50 H17         -6.2940    -4.1500     1.8470 ha         1 8LX       0.124000
     51 H18          9.0620    -2.3450     0.2120 hn         1 8LX       0.351500
     52 H19         -7.9720    -1.7540    -1.3470 ha         1 8LX       0.124000
     53 H20         -9.0890    -5.9020     0.1720 h1         1 8LX       0.041033
     54 H21         -7.3430    -5.8550     0.4970 h1         1 8LX       0.041033
     55 H22         -8.4900    -5.1220     1.6510 h1         1 8LX       0.041033
     56 H23         -2.4400     0.2580    -2.8750 h5         1 8LX       0.046100
     57 H24         -3.4890     2.3230     1.3800 ha         1 8LX       0.143000
     58 OBF         -4.4620    -0.0630     1.0680 os         1 8LX      -0.366400
@<TRIPOS>BOND
     1     1     2 1   
     2     1     4 1   
     3     1    27 1   
     4     1    34 1   
     5     2     3 1   
     6     2    35 1   
     7     2    36 1   
     8     3     5 ar  
     9     3     6 ar  
    10     4    20 1   
    11     4    24 2   
    12     5    10 ar  
    13     5    37 1   
    14     6    11 ar  
    15     6    38 1   
    16     7     9 1   
    17     7    19 1   
    18     7    39 1   
    19     7    40 1   
    20     8    10 ar  
    21     8    11 ar  
    22     8    23 1   
    23     9    23 1   
    24     9    41 1   
    25     9    42 1   
    26    10    43 1   
    27    11    44 1   
    28    12    20 1   
    29    12    25 2   
    30    12    27 1   
    31    13    19 1   
    32    13    45 1   
    33    13    46 1   
    34    13    47 1   
    35    14    15 ar  
    36    14    16 ar  
    37    14    58 1   
    38    15    18 ar  
    39    15    48 1   
    40    16    21 ar  
    41    16    49 1   
    42    17    18 ar  
    43    17    21 ar  
    44    17    26 1   
    45    18    50 1   
    46    19    33 1   
    47    20    51 1   
    48    21    52 1   
    49    22    26 1   
    50    22    53 1   
    51    22    54 1   
    52    22    55 1   
    53    28    29 ar  
    54    28    33 ar  
    55    29    30 ar  
    56    29    56 1   
    57    30    31 ar  
    58    31    32 ar  
    59    31    58 1   
    60    32    33 ar  
    61    32    57 1   
@<TRIPOS>SUBSTRUCTURE
     1 8LX         1 TEMP              0 ****  ****    0 ROOT
