@<TRIPOS>MOLECULE
8LX
   58    61     1     0     0
SMALL
bcc


@<TRIPOS>ATOM
      1 CAE          6.1810    -0.3490     0.4480 c5         1 8LX      -0.084600
      2 CAF          5.0790    -0.1400     1.4890 c3         1 8LX       0.000900
      3 CAG          3.9040     0.5990     0.9140 ca         1 8LX      -0.140300
      4 CAH          7.3560    -1.1200     1.0180 c          1 8LX       0.717500
      5 CAI          2.7450    -0.0720     0.5280 ca         1 8LX      -0.076500
      6 CAJ          3.9530     1.9740     0.7220 ca         1 8LX      -0.076500
      7 CAK         -0.8380     4.3420    -1.2390 c3         1 8LX       0.225800
      8 CAL          1.7340     1.9880    -0.2060 ca         1 8LX       0.152100
      9 CAM          0.5720     3.9740    -0.8180 c3         1 8LX       0.112400
     10 CAN          1.6720     0.6060    -0.0210 ca         1 8LX      -0.190500
     11 CAO          2.8890     2.6730     0.1670 ca         1 8LX      -0.190500
     12 CAP          6.8260    -2.5350    -0.7960 c          1 8LX       0.735100
     13 CAR         -1.8830     4.4780     0.9950 c3         1 8LX       0.205100
     14 CAV         -5.3680    -0.8220     0.7290 ca         1 8LX       0.075100
     15 CAW         -4.8530    -2.0550     1.0730 ca         1 8LX      -0.085500
     16 CAX         -6.6120    -0.7280     0.1210 ca         1 8LX      -0.085500
     17 CAY         -6.8250    -3.1300     0.2020 ca         1 8LX       0.142100
     18 CAZ         -5.5780    -3.2140     0.8140 ca         1 8LX      -0.182500
     19 NAA         -1.8390     3.8580    -0.3110 nh         1 8LX      -0.772300
     20 NAB          7.6170    -2.2470     0.2900 ns         1 8LX      -0.617500
     21 CBA         -7.3370    -1.8760    -0.1410 ca         1 8LX      -0.182500
     22 CBB         -7.1320    -5.4830     0.2360 c3         1 8LX       0.125700
     23 OBC          0.6460     2.5660    -0.7450 os         1 8LX      -0.308900
     24 OBD          7.9710    -0.7820     1.9970 o          1 8LX      -0.562500
     25 OBE          6.9460    -3.4920    -1.5110 o          1 8LX      -0.539500
     26 OBG         -7.6010    -4.1910    -0.0930 os         1 8LX      -0.317900
     27 SBH          5.5920    -1.2900    -0.9930 ss         1 8LX      -0.211700
     28 N1          -2.4200     2.1480    -1.7540 nb         1 8LX      -0.794000
     29 C2          -3.0910     1.0410    -1.9590 ca         1 8LX       0.715900
     30 N3          -3.8520     0.3790    -1.0960 nb         1 8LX      -0.803000
     31 C4          -3.9260     0.9250     0.1060 ca         1 8LX       0.696600
     32 C5          -3.2750     2.0890     0.4680 ca         1 8LX      -0.467600
     33 C6          -2.4980     2.7000    -0.5290 ca         1 8LX       0.737200
     34 H1           6.5510     0.6180     0.0980 h1         1 8LX       0.114700
     35 H2           4.7650    -1.1080     1.8830 hc         1 8LX       0.066700
     36 H3           5.5090     0.4250     2.3190 hc         1 8LX       0.066700
     37 H4           2.6720    -1.1440     0.6690 ha         1 8LX       0.133000
     38 H5           4.8400     2.5260     1.0140 ha         1 8LX       0.133000
     39 H6          -0.9020     5.4310    -1.2950 h1         1 8LX       0.078700
     40 H7          -1.0520     3.9510    -2.2300 h1         1 8LX       0.078700
     41 H8           1.2820     4.3740    -1.5510 h1         1 8LX       0.038200
     42 H9           0.8140     4.4230     0.1520 h1         1 8LX       0.038200
     43 H10          0.7740     0.0720    -0.3060 ha         1 8LX       0.143000
     44 H11          2.9790     3.7430     0.0350 ha         1 8LX       0.143000
     45 H12         -2.9120     4.6450     1.3160 h1         1 8LX       0.042033
     46 H13         -1.3770     3.8860     1.7620 h1         1 8LX       0.042033
     47 H14         -1.3970     5.4490     0.9410 h1         1 8LX       0.042033
     48 H15         -3.8830    -2.1270     1.5500 ha         1 8LX       0.143500
     49 H16         -7.0200     0.2390    -0.1440 ha         1 8LX       0.143500
     50 H17         -5.1490    -4.1650     1.0970 ha         1 8LX       0.142000
     51 H18          8.3650    -2.8770     0.5520 hn         1 8LX       0.351500
     52 H19         -8.3080    -1.8070    -0.6150 ha         1 8LX       0.142000
     53 H20         -7.9000    -6.1820    -0.0860 h1         1 8LX       0.041033
     54 H21         -6.1990    -5.7240    -0.2810 h1         1 8LX       0.041033
     55 H22         -6.9790    -5.6010     1.3120 h1         1 8LX       0.041033
     56 H23         -3.0170     0.6110    -2.9530 h5         1 8LX       0.046100
     57 H24         -3.3620     2.4760     1.4720 ha         1 8LX       0.161000
     58 OBF         -4.6680     0.3230     1.0510 os         1 8LX      -0.366400
@<TRIPOS>BOND
     1     1     2 1   
     2     1     4 1   
     3     1    27 1   
     4     1    34 1   
     5     2     3 1   
     6     2    35 1   
     7     2    36 1   
     8     3     5 ar  
     9     3     6 ar  
    10     4    20 1   
    11     4    24 2   
    12     5    10 ar  
    13     5    37 1   
    14     6    11 ar  
    15     6    38 1   
    16     7     9 1   
    17     7    19 1   
    18     7    39 1   
    19     7    40 1   
    20     8    10 ar  
    21     8    11 ar  
    22     8    23 1   
    23     9    23 1   
    24     9    41 1   
    25     9    42 1   
    26    10    43 1   
    27    11    44 1   
    28    12    20 1   
    29    12    25 2   
    30    12    27 1   
    31    13    19 1   
    32    13    45 1   
    33    13    46 1   
    34    13    47 1   
    35    14    15 ar  
    36    14    16 ar  
    37    14    58 1   
    38    15    18 ar  
    39    15    48 1   
    40    16    21 ar  
    41    16    49 1   
    42    17    18 ar  
    43    17    21 ar  
    44    17    26 1   
    45    18    50 1   
    46    19    33 1   
    47    20    51 1   
    48    21    52 1   
    49    22    26 1   
    50    22    53 1   
    51    22    54 1   
    52    22    55 1   
    53    28    29 ar  
    54    28    33 ar  
    55    29    30 ar  
    56    29    56 1   
    57    30    31 ar  
    58    31    32 ar  
    59    31    58 1   
    60    32    33 ar  
    61    32    57 1   
@<TRIPOS>SUBSTRUCTURE
     1 8LX         1 TEMP              0 ****  ****    0 ROOT
