@<TRIPOS>MOLECULE
8LY
   53    57     1     0     0
SMALL
abcg2


@<TRIPOS>ATOM
      1 C4           5.9650     2.6070    -0.2530 ca         1 8LY      -0.068000
      2 C5           4.8170     2.6070    -1.0310 ca         1 8LY       0.094000
      3 C7           3.9690     1.5130    -1.0520 ca         1 8LY      -0.067000
      4 C8           4.2560     0.3820    -0.2900 cp         1 8LY      -0.176500
      5 C10          1.9820    -0.5960    -0.1990 ca         1 8LY      -0.214000
      6 N12         -0.2300    -1.4840    -0.1620 nu         1 8LY      -0.967000
      7 C13         -1.2230    -2.3420     0.2310 ca         1 8LY       0.382000
      8 C15         -2.2240    -4.2930     1.2750 ca         1 8LY       0.362900
      9 C17         -3.6260    -2.8010     0.3870 ca         1 8LY       0.179000
     10 C20         -5.1550     0.0380    -1.2120 c3         1 8LY       0.080600
     11 C21         -4.9900     1.3720    -0.4960 c6         1 8LY      -0.078700
     12 C22         -5.8810     2.4240    -1.1540 c6         1 8LY      -0.074900
     13 C26         -5.2980     1.2870     0.9960 c6         1 8LY      -0.074900
     14 C28         -2.5660    -1.9670    -0.0350 ca         1 8LY      -0.146000
     15 C2           5.4080     0.4040     0.4860 ca         1 8LY       0.213000
     16 C3           6.2580     1.4920     0.5150 ca         1 8LY      -0.154000
     17 CL6          4.4400     3.9920    -1.9990 cl         1 8LY      -0.195000
     18 C9           3.3490    -0.7860    -0.3200 cp         1 8LY       0.429500
     19 C11          1.1270    -1.7000    -0.2480 ca         1 8LY       0.355000
     20 C14         -1.0830    -3.5350     0.9090 ca         1 8LY      -0.243000
     21 N16         -3.4700    -3.9740     1.0400 nb         1 8LY      -0.636000
     22 C18         -4.7670    -2.1210    -0.0330 cc         1 8LY      -0.186100
     23 N19         -4.3290    -1.0080    -0.6360 na         1 8LY       0.157500
     24 C23         -5.7590     3.7560    -0.4270 c6         1 8LY       0.161300
     25 N24         -6.1030     3.5880     0.9730 n7         1 8LY      -0.863400
     26 C25         -5.2030     2.6640     1.6390 c6         1 8LY       0.161300
     27 N27         -3.0120    -0.8790    -0.6590 nc         1 8LY      -0.295400
     28 C29          1.7100    -2.9550    -0.4270 ca         1 8LY      -0.213000
     29 C30          3.0880    -3.0290    -0.5260 ca         1 8LY       0.368900
     30 N31          3.9060    -1.9870    -0.4710 nb         1 8LY      -0.672000
     31 H1           6.6240     3.4630    -0.2390 ha         1 8LY       0.134000
     32 H2           3.0850     1.5220    -1.6770 ha         1 8LY       0.133000
     33 H3           1.5790     0.3980    -0.0460 ha         1 8LY       0.127000
     34 H4          -0.5370    -0.5460    -0.3730 hn         1 8LY       0.514000
     35 H5          -2.0520    -5.2220     1.8080 h4         1 8LY       0.017100
     36 H6          -6.1890    -0.3050    -1.1560 h1         1 8LY       0.068200
     37 H7          -4.8930     0.1360    -2.2660 h1         1 8LY       0.068200
     38 H8          -3.9480     1.6930    -0.6140 hc         1 8LY       0.068700
     39 H9          -5.6070     2.5530    -2.2040 hc         1 8LY       0.050450
     40 H10         -6.9250     2.0930    -1.1310 hc         1 8LY       0.050450
     41 H11         -6.3080     0.8900     1.1430 hc         1 8LY       0.050450
     42 H12         -4.6060     0.6060     1.4980 hc         1 8LY       0.050450
     43 H13          7.1410     1.4740     1.1400 ha         1 8LY       0.138000
     44 H14         -0.1170    -3.9140     1.2060 ha         1 8LY       0.129000
     45 H15         -5.8160    -2.3510     0.0570 h4         1 8LY       0.240000
     46 H16         -4.7340     4.1380    -0.5680 h1         1 8LY       0.032700
     47 H17         -6.4350     4.4880    -0.8730 h1         1 8LY       0.032700
     48 H18         -6.0700     4.4860     1.4380 hn         1 8LY       0.414000
     49 H20         -5.4790     2.5990     2.6940 h1         1 8LY       0.032700
     50 H21         -4.1520     2.9980     1.6040 h1         1 8LY       0.032700
     51 H22          1.1230    -3.8550    -0.5270 ha         1 8LY       0.136000
     52 H23          3.5530    -3.9980    -0.6720 h4         1 8LY       0.022100
     53 F1           5.6960    -0.6450     1.2640 f          1 8LY      -0.157000
@<TRIPOS>BOND
     1     1     2 ar  
     2     1    16 ar  
     3     1    31 1   
     4     2     3 ar  
     5     2    17 1   
     6     3     4 ar  
     7     3    32 1   
     8     4    15 ar  
     9     4    18 1   
    10     5    18 ar  
    11     5    19 ar  
    12     5    33 1   
    13     6     7 1   
    14     6    19 1   
    15     6    34 1   
    16     7    14 ar  
    17     7    20 ar  
    18     8    20 ar  
    19     8    21 ar  
    20     8    35 1   
    21     9    14 ar  
    22     9    21 ar  
    23     9    22 2   
    24    10    11 1   
    25    10    23 1   
    26    10    36 1   
    27    10    37 1   
    28    11    12 1   
    29    11    13 1   
    30    11    38 1   
    31    12    24 1   
    32    12    39 1   
    33    12    40 1   
    34    13    26 1   
    35    13    41 1   
    36    13    42 1   
    37    14    27 2   
    38    15    16 ar  
    39    15    53 1   
    40    16    43 1   
    41    18    30 ar  
    42    19    28 ar  
    43    20    44 1   
    44    22    23 1   
    45    22    45 1   
    46    23    27 1   
    47    24    25 1   
    48    24    46 1   
    49    24    47 1   
    50    25    26 1   
    51    25    48 1   
    52    26    49 1   
    53    26    50 1   
    54    28    29 ar  
    55    28    51 1   
    56    29    30 ar  
    57    29    52 1   
@<TRIPOS>SUBSTRUCTURE
     1 8LY         1 TEMP              0 ****  ****    0 ROOT
