@<TRIPOS>MOLECULE
8LY
   53    57     1     0     0
SMALL
No Charge or Current Charge


@<TRIPOS>ATOM
      1 C4           6.4940     2.3590    -0.3800 ca         1 8LY      -0.068000
      2 C5           5.2450     2.5000    -1.0030 ca         1 8LY       0.094000
      3 C7           4.3280     1.4360    -0.9950 ca         1 8LY      -0.067000
      4 C8           4.6380     0.1990    -0.3670 cp         1 8LY      -0.176500
      5 C10          2.2650    -0.6690    -0.1920 ca         1 8LY      -0.214000
      6 N12          0.0030    -1.4760    -0.0530 nu         1 8LY      -0.967000
      7 C13         -1.0840    -2.2440     0.3590 ca         1 8LY       0.382000
      8 C15         -2.0900    -4.1250     1.5160 ca         1 8LY       0.362900
      9 C17         -3.4380    -2.5910     0.4970 ca         1 8LY       0.179000
     10 C20         -5.0420     0.2160    -1.2630 c3         1 8LY       0.080600
     11 C21         -5.2590     1.5160    -0.4310 c6         1 8LY      -0.078700
     12 C22         -6.0700     2.5700    -1.2350 c6         1 8LY      -0.074900
     13 C26         -5.9630     1.2440     0.9300 c6         1 8LY      -0.074900
     14 C28         -2.3890    -1.8230     0.0600 ca         1 8LY      -0.146000
     15 C2           5.9080     0.0810     0.2630 ca         1 8LY       0.213000
     16 C3           6.8220     1.1490     0.2550 ca         1 8LY      -0.154000
     17 Cl6          4.8280     4.0120    -1.7980 cl         1 8LY      -0.195000
     18 C9           3.6410    -0.9160    -0.3780 cp         1 8LY       0.429500
     19 C11          1.3600    -1.7290    -0.2300 ca         1 8LY       0.355000
     20 C14         -0.9390    -3.4160     1.1180 ca         1 8LY      -0.243000
     21 N16         -3.3490    -3.7240     1.2080 nb         1 8LY      -0.636000
     22 C18         -4.6130    -1.9390     0.0570 cc         1 8LY      -0.186100
     23 N19         -4.1920    -0.8010    -0.6220 na         1 8LY       0.157500
     24 C23         -6.3170     3.8490    -0.3970 c6         1 8LY       0.161300
     25 N24         -6.9840     3.5290     0.8880 n7         1 8LY      -0.863400
     26 C25         -6.2150     2.5600     1.7060 c6         1 8LY       0.161300
     27 N27         -2.7970    -0.6830    -0.6500 nc         1 8LY      -0.295400
     28 C29          1.8470    -3.0110    -0.4940 ca         1 8LY      -0.213000
     29 C30          3.2220    -3.1830    -0.6810 ca         1 8LY       0.368900
     30 N31          4.1010    -2.1610    -0.6220 nb         1 8LY      -0.672000
     31 H1           7.2020     3.1840    -0.3860 ha         1 8LY       0.134000
     32 H2           3.3710     1.5690    -1.4950 ha         1 8LY       0.133000
     33 H3           1.9170     0.3400     0.0030 ha         1 8LY       0.127000
     34 H4          -0.2790    -0.5310    -0.3150 hn         1 8LY       0.514000
     35 H5          -2.0030    -5.0370     2.1060 h4         1 8LY       0.017100
     36 H6          -6.0170    -0.2360    -1.4810 h1         1 8LY       0.068200
     37 H7          -4.5820     0.4830    -2.2220 h1         1 8LY       0.068200
     38 H8          -4.2600     1.9290    -0.2320 hc         1 8LY       0.068700
     39 H9          -5.5360     2.8360    -2.1570 hc         1 8LY       0.050450
     40 H10         -7.0360     2.1460    -1.5430 hc         1 8LY       0.050450
     41 H11         -6.9200     0.7300     0.7620 hc         1 8LY       0.050450
     42 H12         -5.3520     0.5740     1.5500 hc         1 8LY       0.050450
     43 H13          7.7840     1.0370     0.7480 ha         1 8LY       0.138000
     44 H14          0.0370    -3.7730     1.4220 ha         1 8LY       0.129000
     45 H15         -5.6610    -2.1760     0.1710 h4         1 8LY       0.240000
     46 H16         -5.3560     4.3470    -0.1960 h1         1 8LY       0.032700
     47 H17         -6.9410     4.5510    -0.9700 h1         1 8LY       0.032700
     48 H18         -7.1010     4.3970     1.4260 hn         1 8LY       0.414000
     49 H20         -6.7670     2.3420     2.6320 h1         1 8LY       0.032700
     50 H21         -5.2510     3.0070     1.9910 h1         1 8LY       0.032700
     51 H22          1.1840    -3.8630    -0.5810 ha         1 8LY       0.136000
     52 H23          3.6350    -4.1680    -0.8920 h4         1 8LY       0.022100
     53 F1           6.2580    -1.0460     0.9220 f          1 8LY      -0.157000
@<TRIPOS>BOND
     1     1     2 ar  
     2     1    16 ar  
     3     1    31 1   
     4     2     3 ar  
     5     2    17 1   
     6     3     4 ar  
     7     3    32 1   
     8     4    15 ar  
     9     4    18 1   
    10     5    18 ar  
    11     5    19 ar  
    12     5    33 1   
    13     6     7 1   
    14     6    19 1   
    15     6    34 1   
    16     7    14 ar  
    17     7    20 ar  
    18     8    20 ar  
    19     8    21 ar  
    20     8    35 1   
    21     9    14 ar  
    22     9    21 ar  
    23     9    22 2   
    24    10    11 1   
    25    10    23 1   
    26    10    36 1   
    27    10    37 1   
    28    11    12 1   
    29    11    13 1   
    30    11    38 1   
    31    12    24 1   
    32    12    39 1   
    33    12    40 1   
    34    13    26 1   
    35    13    41 1   
    36    13    42 1   
    37    14    27 2   
    38    15    16 ar  
    39    15    53 1   
    40    16    43 1   
    41    18    30 ar  
    42    19    28 ar  
    43    20    44 1   
    44    22    23 1   
    45    22    45 1   
    46    23    27 1   
    47    24    25 1   
    48    24    46 1   
    49    24    47 1   
    50    25    26 1   
    51    25    48 1   
    52    26    49 1   
    53    26    50 1   
    54    28    29 ar  
    55    28    51 1   
    56    29    30 ar  
    57    29    52 1   
@<TRIPOS>SUBSTRUCTURE
     1 8LY         1 TEMP              0 ****  ****    0 ROOT
