@<TRIPOS>MOLECULE
8LZ
   31    33     1     0     0
SMALL
bcc


@<TRIPOS>ATOM
      1 C4          -0.2970     1.0250     0.2820 ca         1 8LZ      -0.094000
      2 C5           0.7630     0.2040    -0.0770 ca         1 8LZ      -0.185300
      3 C6           0.4980    -1.0770    -0.5570 ca         1 8LZ      -0.114000
      4 C7          -0.8060    -1.5310    -0.6510 ca         1 8LZ      -0.121000
      5 C8           2.1690     0.7060     0.0590 c5         1 8LZ       0.222800
      6 C9           4.2010    -0.5970     0.5130 c5         1 8LZ       0.128800
      7 C10          4.4560     0.3620    -0.6320 c5         1 8LZ      -0.102400
      8 C11          3.0550     0.5940    -1.1830 c5         1 8LZ      -0.097400
      9 N            2.9360    -0.0790     1.1240 ny         1 8LZ      -0.787000
     10 C3          -1.6090     0.5850     0.1710 ca         1 8LZ       0.070100
     11 O           -2.6050     1.4320     0.5140 os         1 8LZ      -0.295900
     12 C2          -1.8670    -0.7110    -0.2880 ca         1 8LZ       0.110100
     13 O1          -3.1240    -1.1960    -0.3880 os         1 8LZ      -0.286900
     14 C1          -4.1050    -0.4340     0.3020 c6         1 8LZ       0.088400
     15 C           -3.8900     1.0390     0.0520 c6         1 8LZ       0.089400
     16 H1          -0.1150     2.0280     0.6510 ha         1 8LZ       0.154000
     17 H2           1.3030    -1.7380    -0.8550 ha         1 8LZ       0.132000
     18 H3          -1.0150    -2.5310    -1.0110 ha         1 8LZ       0.169000
     19 H4           2.1600     1.7340     0.4140 hx         1 8LZ       0.097700
     20 H5           4.0010    -1.6040     0.1530 hx         1 8LZ       0.101700
     21 H6           4.9750    -0.6360     1.2740 hx         1 8LZ       0.101700
     22 H8           4.8970     1.2920    -0.2660 hc         1 8LZ       0.094200
     23 H7           5.1330    -0.0690    -1.3670 hc         1 8LZ       0.094200
     24 H9           2.7500    -0.2490    -1.8040 hc         1 8LZ       0.096700
     25 H10          2.9720     1.4950    -1.7880 hc         1 8LZ       0.096700
     26 H11          3.1480     0.5360     1.9090 hn         1 8LZ       0.446300
     27 H12          2.3720    -0.8320     1.5180 hn         1 8LZ       0.446300
     28 H13         -5.0780    -0.7460    -0.0750 h1         1 8LZ       0.085200
     29 H14         -4.0620    -0.6510     1.3740 h1         1 8LZ       0.085200
     30 H16         -4.6230     1.6290     0.5980 h1         1 8LZ       0.085700
     31 H15         -3.9890     1.2640    -1.0150 h1         1 8LZ       0.085700
@<TRIPOS>BOND
     1     1     2 ar  
     2     1    10 ar  
     3     1    16 1   
     4     2     3 ar  
     5     2     5 1   
     6     3     4 ar  
     7     3    17 1   
     8     4    12 ar  
     9     4    18 1   
    10     5     8 1   
    11     5     9 1   
    12     5    19 1   
    13     6     7 1   
    14     6     9 1   
    15     6    20 1   
    16     6    21 1   
    17     7     8 1   
    18     7    22 1   
    19     7    23 1   
    20     8    24 1   
    21     8    25 1   
    22     9    26 1   
    23     9    27 1   
    24    10    11 1   
    25    10    12 ar  
    26    11    15 1   
    27    12    13 1   
    28    13    14 1   
    29    14    15 1   
    30    14    28 1   
    31    14    29 1   
    32    15    30 1   
    33    15    31 1   
@<TRIPOS>SUBSTRUCTURE
     1 8LZ         1 TEMP              0 ****  ****    0 ROOT
