@<TRIPOS>MOLECULE
8LZ
   31    33     1     0     0
SMALL
No Charge or Current Charge


@<TRIPOS>ATOM
      1 C4          -0.2750     1.1200     0.2670 ca         1 8LZ      -0.076000
      2 C5           0.8430     0.3010     0.0020 ca         1 8LZ      -0.185300
      3 C6           0.6240    -1.0450    -0.3800 ca         1 8LZ      -0.096000
      4 C7          -0.6810    -1.5570    -0.4900 ca         1 8LZ      -0.103000
      5 C8           2.2390     0.9050     0.1510 c5         1 8LZ       0.194600
      6 C9           4.0500    -0.7910     0.3460 c5         1 8LZ       0.100600
      7 C10          4.4410     0.3160    -0.6530 c5         1 8LZ      -0.102400
      8 C11          3.0400     0.7330    -1.1730 c5         1 8LZ      -0.097400
      9 N            2.9370    -0.0550     1.1110 ny         1 8LZ      -0.841000
     10 C3          -1.5800     0.6160     0.1480 ca         1 8LZ       0.070100
     11 O           -2.6540     1.4500     0.3920 os         1 8LZ      -0.319100
     12 C2          -1.7840    -0.7360    -0.2170 ca         1 8LZ       0.110100
     13 O1          -3.0600    -1.2580    -0.3080 os         1 8LZ      -0.310100
     14 C1          -4.1350    -0.4950     0.2840 c6         1 8LZ       0.111600
     15 C           -3.9570     1.0030    -0.0450 c6         1 8LZ       0.112600
     16 H1          -0.1330     2.1590     0.5590 ha         1 8LZ       0.136000
     17 H2           1.4630    -1.7040    -0.5910 ha         1 8LZ       0.114000
     18 H3          -0.8380    -2.5940    -0.7770 ha         1 8LZ       0.151000
     19 H4           2.2510     1.9210     0.5600 hx         1 8LZ       0.097700
     20 H5           3.6340    -1.6770    -0.1450 hx         1 8LZ       0.101700
     21 H6           4.8520    -1.1020     1.0240 hx         1 8LZ       0.101700
     22 H8           4.9600     1.1450    -0.1570 hc         1 8LZ       0.094200
     23 H7           5.0960    -0.0550    -1.4500 hc         1 8LZ       0.094200
     24 H9           2.6210    -0.0350    -1.8330 hc         1 8LZ       0.096700
     25 H10          3.0650     1.6620    -1.7520 hc         1 8LZ       0.096700
     26 H11          3.3190     0.4640     1.9290 hn         1 8LZ       0.501500
     27 H12          2.2560    -0.7050     1.5540 hn         1 8LZ       0.501500
     28 H13         -5.0980    -0.8650    -0.0950 h1         1 8LZ       0.085200
     29 H14         -4.1160    -0.6350     1.3740 h1         1 8LZ       0.085200
     30 H16         -4.7340     1.6050     0.4470 h1         1 8LZ       0.085700
     31 H15         -4.0420     1.1520    -1.1310 h1         1 8LZ       0.085700
@<TRIPOS>BOND
     1     1     2 ar  
     2     1    10 ar  
     3     1    16 1   
     4     2     3 ar  
     5     2     5 1   
     6     3     4 ar  
     7     3    17 1   
     8     4    12 ar  
     9     4    18 1   
    10     5     8 1   
    11     5     9 1   
    12     5    19 1   
    13     6     7 1   
    14     6     9 1   
    15     6    20 1   
    16     6    21 1   
    17     7     8 1   
    18     7    22 1   
    19     7    23 1   
    20     8    24 1   
    21     8    25 1   
    22     9    26 1   
    23     9    27 1   
    24    10    11 1   
    25    10    12 ar  
    26    11    15 1   
    27    12    13 1   
    28    13    14 1   
    29    14    15 1   
    30    14    28 1   
    31    14    29 1   
    32    15    30 1   
    33    15    31 1   
@<TRIPOS>SUBSTRUCTURE
     1 8LZ         1 TEMP              0 ****  ****    0 ROOT
