@<TRIPOS>MOLECULE
8M1
   61    65     1     0     0
SMALL
abcg2


@<TRIPOS>ATOM
      1 C5           8.1480   -23.2070    38.7270 c6         1 8M1       0.107700
      2 C7           9.6610   -23.0140    38.8480 c6         1 8M1      -0.082900
      3 C8           9.9780   -21.8420    39.7760 c6         1 8M1      -0.089900
      4 C17         12.9160   -20.1650    44.2250 ca         1 8M1      -0.203000
      5 C20         14.9030   -22.0960    44.3920 ca         1 8M1      -0.073000
      6 C21         13.7890   -22.3550    43.6280 ca         1 8M1      -0.115000
      7 C22         12.7610   -21.3910    43.5260 ca         1 8M1       0.083000
      8 C24          8.1140   -25.6330    38.1060 ca         1 8M1      -0.063000
      9 C26          7.5020   -27.7430    39.0980 ca         1 8M1      -0.108500
     10 C28          9.6530   -27.4890    38.0660 ca         1 8M1      -0.108500
     11 C1           6.9050   -25.1020    35.6430 c3         1 8M1      -0.171100
     12 C2           7.2330   -23.9560    36.5740 c          1 8M1       0.607100
     13 O3           6.9950   -22.7900    36.2490 o          1 8M1      -0.609100
     14 N4           7.7950   -24.2770    37.7730 n          1 8M1      -0.249400
     15 C9           9.3380   -22.0320    41.1570 c6         1 8M1       0.240500
     16 C11          7.8320   -22.2560    41.0330 c6         1 8M1      -0.089900
     17 C12          7.5150   -23.4250    40.1010 c6         1 8M1      -0.082900
     18 N13          9.5900   -20.8980    42.0300 nu         1 8M1      -0.920100
     19 C14         10.7280   -20.6960    42.7300 ca         1 8M1       0.383900
     20 N15         10.7890   -19.4740    43.3670 nb         1 8M1      -0.228000
     21 C16         11.8540   -19.2380    44.0820 ca         1 8M1       0.172900
     22 C18         14.0670   -19.9200    45.0000 ca         1 8M1      -0.051000
     23 C19         15.0510   -20.8750    45.0850 ca         1 8M1      -0.140000
     24 N23         11.6560   -21.6380    42.7740 nb         1 8M1      -0.258000
     25 C25          7.1950   -26.4280    38.7830 ca         1 8M1      -0.106000
     26 C27          8.7370   -28.3030    38.7450 ca         1 8M1       0.028000
     27 C29          9.3480   -26.1730    37.7520 ca         1 8M1      -0.106000
     28 C30          9.0520   -29.6940    39.0710 cc         1 8M1      -0.166000
     29 C31          8.2020   -30.6780    39.6290 cc         1 8M1       0.260900
     30 N32          8.8300   -31.8410    39.7840 nd         1 8M1      -0.522800
     31 N33         10.0830   -31.6280    39.3330 na         1 8M1       0.121800
     32 C34         11.0610   -32.6980    39.3570 c3         1 8M1       0.075900
     33 C35         10.2580   -30.3640    38.9000 cd         1 8M1      -0.143000
     34 H1           7.7240   -22.3020    38.2930 h1         1 8M1       0.088700
     35 H2          10.1170   -23.9270    39.2430 hc         1 8M1       0.051200
     36 H3          10.0890   -22.8400    37.8580 hc         1 8M1       0.051200
     37 H4          11.0570   -21.7270    39.8880 hc         1 8M1       0.051200
     38 H5           9.5940   -20.9120    39.3430 hc         1 8M1       0.051200
     39 H6          15.6840   -22.8430    44.4640 ha         1 8M1       0.113000
     40 H7          13.6780   -23.2930    43.0970 ha         1 8M1       0.130000
     41 H8           6.7690   -28.3390    39.6270 ha         1 8M1       0.114000
     42 H9          10.6140   -27.8880    37.7680 ha         1 8M1       0.114000
     43 H10          6.3990   -24.7000    34.7690 hc         1 8M1       0.063033
     44 H11          7.8140   -25.6170    35.3300 hc         1 8M1       0.063033
     45 H12          6.2660   -25.8380    36.1310 hc         1 8M1       0.063033
     46 H13          9.7870   -22.9080    41.6300 h1         1 8M1       0.082700
     47 H14          7.3690   -21.3410    40.6460 hc         1 8M1       0.051200
     48 H15          7.4080   -22.4390    42.0230 hc         1 8M1       0.051200
     49 H16          6.4340   -23.5380    39.9960 hc         1 8M1       0.051200
     50 H17          7.8970   -24.3510    40.5400 hc         1 8M1       0.051200
     51 H18          8.9810   -20.0980    41.9530 hn         1 8M1       0.501000
     52 H19         11.9130   -18.2770    44.5860 h4         1 8M1       0.021100
     53 H20         14.1580   -18.9750    45.5220 ha         1 8M1       0.113000
     54 H21         15.9390   -20.6990    45.6780 ha         1 8M1       0.116000
     55 H22          6.2330   -26.0130    39.0550 ha         1 8M1       0.122000
     56 H23         10.0620   -25.5620    37.2170 ha         1 8M1       0.122000
     57 H24          7.1660   -30.5880    39.9160 h4         1 8M1       0.039100
     58 H25         11.2230   -33.0310    40.3820 h1         1 8M1       0.058033
     59 H26         10.7090   -33.5350    38.7550 h1         1 8M1       0.058033
     60 H27         11.9950   -32.3210    38.9460 h1         1 8M1       0.058033
     61 H28         11.2080   -30.0360    38.5140 h4         1 8M1       0.153000
@<TRIPOS>BOND
     1     1     2 1   
     2     1    14 1   
     3     1    17 1   
     4     1    34 1   
     5     2     3 1   
     6     2    35 1   
     7     2    36 1   
     8     3    15 1   
     9     3    37 1   
    10     3    38 1   
    11     4     7 ar  
    12     4    21 ar  
    13     4    22 ar  
    14     5     6 ar  
    15     5    23 ar  
    16     5    39 1   
    17     6     7 ar  
    18     6    40 1   
    19     7    24 ar  
    20     8    14 1   
    21     8    25 ar  
    22     8    27 ar  
    23     9    25 ar  
    24     9    26 ar  
    25     9    41 1   
    26    10    26 ar  
    27    10    27 ar  
    28    10    42 1   
    29    11    12 1   
    30    11    43 1   
    31    11    44 1   
    32    11    45 1   
    33    12    13 2   
    34    12    14 1   
    35    15    16 1   
    36    15    18 1   
    37    15    46 1   
    38    16    17 1   
    39    16    47 1   
    40    16    48 1   
    41    17    49 1   
    42    17    50 1   
    43    18    19 1   
    44    18    51 1   
    45    19    20 ar  
    46    19    24 ar  
    47    20    21 ar  
    48    21    52 1   
    49    22    23 ar  
    50    22    53 1   
    51    23    54 1   
    52    25    55 1   
    53    26    28 1   
    54    27    56 1   
    55    28    29 1   
    56    28    33 2   
    57    29    30 2   
    58    29    57 1   
    59    30    31 1   
    60    31    32 1   
    61    31    33 1   
    62    32    58 1   
    63    32    59 1   
    64    32    60 1   
    65    33    61 1   
@<TRIPOS>SUBSTRUCTURE
     1 8M1         1 TEMP              0 ****  ****    0 ROOT
