@<TRIPOS>MOLECULE
8M1
   61    65     1     0     0
SMALL
No Charge or Current Charge


@<TRIPOS>ATOM
      1 C5           8.2310   -23.3940    39.0310 c6         1 8M1       0.107700
      2 C7           9.6720   -22.8060    39.0300 c6         1 8M1      -0.082900
      3 C8           9.8400   -21.7250    40.1290 c6         1 8M1      -0.089900
      4 C17         12.9610   -19.6840    44.2100 ca         1 8M1      -0.203000
      5 C20         15.4620   -20.8250    43.6580 ca         1 8M1      -0.073000
      6 C21         14.3000   -21.3640    43.0780 ca         1 8M1      -0.115000
      7 C22         13.0390   -20.8010    43.3470 ca         1 8M1       0.083000
      8 C24          8.1440   -25.7840    38.2170 ca         1 8M1      -0.063000
      9 C26          7.1640   -28.0210    38.2160 ca         1 8M1      -0.108500
     10 C28          9.5300   -27.7470    38.6570 ca         1 8M1      -0.108500
     11 C1           7.6910   -24.8880    35.4510 c3         1 8M1      -0.171100
     12 C2           7.7210   -23.8960    36.6190 c          1 8M1       0.607100
     13 O3           7.5230   -22.7050    36.4050 o          1 8M1      -0.609100
     14 N4           8.0290   -24.3780    37.9210 n          1 8M1      -0.249400
     15 C9           9.4980   -22.2910    41.5330 c6         1 8M1       0.240500
     16 C11          8.0690   -22.8910    41.5410 c6         1 8M1      -0.089900
     17 C12          7.9110   -23.9730    40.4430 c6         1 8M1      -0.082900
     18 N13          9.5820   -21.2240    42.5450 nu         1 8M1      -0.920100
     19 C14         10.7480   -20.7120    43.1030 ca         1 8M1       0.383900
     20 N15         10.5760   -19.6520    43.9100 nb         1 8M1      -0.228000
     21 C16         11.6890   -19.1370    44.4660 ca         1 8M1       0.172900
     22 C18         14.1200   -19.1410    44.7930 ca         1 8M1      -0.051000
     23 C19         15.3720   -19.7140    44.5140 ca         1 8M1      -0.140000
     24 N23         11.9170   -21.3110    42.7960 nb         1 8M1      -0.258000
     25 C25          7.0370   -26.6330    38.0390 ca         1 8M1      -0.106000
     26 C27          8.4100   -28.5970    38.5360 ca         1 8M1       0.028000
     27 C29          9.4010   -26.3580    38.4800 ca         1 8M1      -0.106000
     28 C30          8.5170   -30.0510    38.7180 cc         1 8M1      -0.166000
     29 C31          7.5320   -31.0500    38.6280 cc         1 8M1       0.260900
     30 N32          7.9860   -32.2660    38.8560 nd         1 8M1      -0.522800
     31 N33          9.3340   -32.0400    39.1060 na         1 8M1       0.121800
     32 C34         10.2380   -33.1570    39.4160 c3         1 8M1       0.075900
     33 C35          9.6840   -30.6870    39.0280 cd         1 8M1      -0.143000
     34 H1           7.5310   -22.5600    38.8710 h1         1 8M1       0.088700
     35 H2          10.4110   -23.6000    39.1910 hc         1 8M1       0.051200
     36 H3           9.8960   -22.3660    38.0490 hc         1 8M1       0.051200
     37 H4          10.8710   -21.3480    40.1150 hc         1 8M1       0.051200
     38 H5           9.1910   -20.8680    39.9020 hc         1 8M1       0.051200
     39 H6          16.4320   -21.2680    43.4430 ha         1 8M1       0.113000
     40 H7          14.3780   -22.2230    42.4160 ha         1 8M1       0.130000
     41 H8           6.2840   -28.6470    38.0960 ha         1 8M1       0.114000
     42 H9          10.5140   -28.1500    38.8760 ha         1 8M1       0.114000
     43 H10          7.6720   -24.3840    34.4780 hc         1 8M1       0.063033
     44 H11          8.5270   -25.5910    35.5340 hc         1 8M1       0.063033
     45 H12          6.8120   -25.5320    35.5570 hc         1 8M1       0.063033
     46 H13         10.2030   -23.1040    41.7730 h1         1 8M1       0.082700
     47 H14          7.3240   -22.0980    41.3840 hc         1 8M1       0.051200
     48 H15          7.8560   -23.3320    42.5250 hc         1 8M1       0.051200
     49 H16          6.8860   -24.3660    40.4590 hc         1 8M1       0.051200
     50 H17          8.5760   -24.8160    40.6760 hc         1 8M1       0.051200
     51 H18          8.7270   -20.7340    42.8070 hn         1 8M1       0.501000
     52 H19         11.5580   -18.2770    45.1210 h4         1 8M1       0.021100
     53 H20         14.0540   -18.2810    45.4560 ha         1 8M1       0.113000
     54 H21         16.2720   -19.2980    44.9620 ha         1 8M1       0.116000
     55 H22          6.0650   -26.2140    37.7850 ha         1 8M1       0.122000
     56 H23         10.2880   -25.7350    38.5430 ha         1 8M1       0.122000
     57 H24          6.4820   -30.9250    38.4010 h4         1 8M1       0.039100
     58 H25          9.8970   -33.6630    40.3260 h1         1 8M1       0.058033
     59 H26         10.2410   -33.8680    38.5820 h1         1 8M1       0.058033
     60 H27         11.2550   -32.7780    39.5730 h1         1 8M1       0.058033
     61 H28         10.6920   -30.3280    39.1950 h4         1 8M1       0.153000
@<TRIPOS>BOND
     1     1     2 1   
     2     1    14 1   
     3     1    17 1   
     4     1    34 1   
     5     2     3 1   
     6     2    35 1   
     7     2    36 1   
     8     3    15 1   
     9     3    37 1   
    10     3    38 1   
    11     4     7 ar  
    12     4    21 ar  
    13     4    22 ar  
    14     5     6 ar  
    15     5    23 ar  
    16     5    39 1   
    17     6     7 ar  
    18     6    40 1   
    19     7    24 ar  
    20     8    14 1   
    21     8    25 ar  
    22     8    27 ar  
    23     9    25 ar  
    24     9    26 ar  
    25     9    41 1   
    26    10    26 ar  
    27    10    27 ar  
    28    10    42 1   
    29    11    12 1   
    30    11    43 1   
    31    11    44 1   
    32    11    45 1   
    33    12    13 2   
    34    12    14 1   
    35    15    16 1   
    36    15    18 1   
    37    15    46 1   
    38    16    17 1   
    39    16    47 1   
    40    16    48 1   
    41    17    49 1   
    42    17    50 1   
    43    18    19 1   
    44    18    51 1   
    45    19    20 ar  
    46    19    24 ar  
    47    20    21 ar  
    48    21    52 1   
    49    22    23 ar  
    50    22    53 1   
    51    23    54 1   
    52    25    55 1   
    53    26    28 1   
    54    27    56 1   
    55    28    29 1   
    56    28    33 2   
    57    29    30 2   
    58    29    57 1   
    59    30    31 1   
    60    31    32 1   
    61    31    33 1   
    62    32    58 1   
    63    32    59 1   
    64    32    60 1   
    65    33    61 1   
@<TRIPOS>SUBSTRUCTURE
     1 8M1         1 TEMP              0 ****  ****    0 ROOT
