@<TRIPOS>MOLECULE
8M2
   15    15     1     0     0
SMALL
No Charge or Current Charge


@<TRIPOS>ATOM
      1 C4           0.5480    -0.9980    -0.1510 cc         1 8M2      -0.227000
      2 S1           2.2410    -0.5120    -0.2160 ss         1 8M2       0.429000
      3 C5           1.7690     1.1760    -0.1520 cc         1 8M2      -0.240000
      4 C3           0.4060     1.3140    -0.0860 cd         1 8M2      -0.101000
      5 C1          -0.3220     0.0790    -0.0830 cd         1 8M2      -0.293900
      6 C2          -1.7880    -0.0430    -0.0190 cf         1 8M2       0.546400
      7 N2          -2.3590    -1.2580    -0.0640 nv         1 8M2      -0.572200
      8 N1          -2.5500     1.0580     0.0870 nv         1 8M2      -0.556300
      9 HC4          0.3360    -2.0600    -0.1670 h4         1 8M2       0.169000
     10 HC5          2.5380     1.9370    -0.1690 h4         1 8M2       0.185000
     11 HC3         -0.0630     2.2930    -0.0410 ha         1 8M2       0.152000
     12 HN21        -1.7910    -2.0860    -0.1670 hn         1 8M2       0.377500
     13 HN22        -3.3630    -1.3690    -0.0410 hn         1 8M2       0.377500
     14 HN1         -3.5560     0.9950     0.1510 hn         1 8M2       0.377500
     15 H1          -2.1270     1.9720     0.1470 hn         1 8M2       0.377500
@<TRIPOS>BOND
     1     1     2 1   
     2     1     5 2   
     3     1     9 1   
     4     2     3 1   
     5     3     4 2   
     6     3    10 1   
     7     4     5 1   
     8     4    11 1   
     9     5     6 1   
    10     6     7 2   
    11     6     8 1   
    12     7    12 1   
    13     7    13 1   
    14     8    14 1   
    15     8    15 1   
@<TRIPOS>SUBSTRUCTURE
     1 8M2         1 TEMP              0 ****  ****    0 ROOT
