@<TRIPOS>MOLECULE
8M2
   15    15     1     0     0
SMALL
bcc


@<TRIPOS>ATOM
      1 C4           0.5380    -0.9660     0.1740 cc         1 8M2      -0.100100
      2 S1           2.1600    -0.4740     0.0810 ss         1 8M2       0.139200
      3 C5           1.7220     1.1440    -0.2780 cc         1 8M2      -0.113100
      4 C3           0.3750     1.3040    -0.3150 cd         1 8M2      -0.119000
      5 C1          -0.3130     0.0820    -0.0580 cd         1 8M2      -0.293900
      6 C2          -1.7670    -0.0470    -0.0200 cf         1 8M2       0.546400
      7 N2          -2.3240    -1.1860    -0.3560 nv         1 8M2      -0.471600
      8 N1          -2.4870     0.9840     0.3520 nv         1 8M2      -0.455700
      9 HC4          0.2890    -1.9870     0.4240 h4         1 8M2       0.187000
     10 HC5          2.4810     1.8900    -0.4530 h4         1 8M2       0.203000
     11 HC3         -0.1060     2.2430    -0.5480 ha         1 8M2       0.170000
     12 HN21        -1.7810    -1.9230    -0.7740 hn         1 8M2       0.327200
     13 HN22        -3.3190    -1.3370    -0.2830 hn         1 8M2       0.327200
     14 HN1         -3.4960     0.9600     0.3530 hn         1 8M2       0.327200
     15 H1          -2.0520     1.8090     0.7310 hn         1 8M2       0.327200
@<TRIPOS>BOND
     1     1     2 1   
     2     1     5 2   
     3     1     9 1   
     4     2     3 1   
     5     3     4 2   
     6     3    10 1   
     7     4     5 1   
     8     4    11 1   
     9     5     6 1   
    10     6     7 2   
    11     6     8 1   
    12     7    12 1   
    13     7    13 1   
    14     8    14 1   
    15     8    15 1   
@<TRIPOS>SUBSTRUCTURE
     1 8M2         1 TEMP              0 ****  ****    0 ROOT
