@<TRIPOS>MOLECULE
8M4
   62    65     1     0     0
SMALL
No Charge or Current Charge


@<TRIPOS>ATOM
      1 C11          3.9080    -1.4560    -0.5510 ca         1 8M4       0.353300
      2 C13          5.4350    -0.9430     1.4740 c6         1 8M4      -0.056700
      3 C14          6.1340    -1.5880     2.7040 c6         1 8M4      -0.070400
      4 C17          7.1680     0.9520     1.5250 c6         1 8M4      -0.073900
      5 C19          4.4020    -1.4810    -1.8670 ca         1 8M4      -0.157000
      6 C21          2.3680    -0.4020    -2.5770 ca         1 8M4      -0.114000
      7 O01         -4.2710     2.6090     4.3720 o          1 8M4      -0.716000
      8 C03         -3.2240     1.3990     2.6270 ca         1 8M4      -0.099600
      9 C04         -1.9260     1.8370     2.9720 ca         1 8M4      -0.111000
     10 C05         -0.8050     1.3990     2.2490 ca         1 8M4      -0.117000
     11 C06         -0.9530     0.5330     1.1520 ca         1 8M4      -0.154000
     12 N07          0.2320     0.1360     0.4670 ns         1 8M4      -0.135000
     13 C09          1.9270    -0.4080    -1.2340 ca         1 8M4       0.300500
     14 N10          2.6990    -0.9360    -0.2370 nb         1 8M4      -0.681000
     15 C12          4.7200    -2.0220     0.6060 c3         1 8M4      -0.120700
     16 C15          6.8430    -0.5250     3.5800 c6         1 8M4      -0.073900
     17 C16          7.8540     0.3010     2.7490 c6         1 8M4      -0.073400
     18 C18          6.4570    -0.1080     0.6480 c6         1 8M4      -0.070400
     19 C20          3.6220    -0.9450    -2.9020 ca         1 8M4      -0.086000
     20 O22         -0.1840     0.6890    -1.7290 o          1 8M4      -0.578100
     21 C23         -2.2450     0.0770     0.7930 ca         1 8M4       0.305000
     22 N24         -2.4070    -0.8710    -0.2240 nu         1 8M4      -0.989000
     23 C25         -3.4450    -1.1630    -1.1150 ca         1 8M4       0.302000
     24 C26         -4.4460    -0.2210    -1.4240 ca         1 8M4      -0.120500
     25 C27         -5.4670    -0.5410    -2.3380 ca         1 8M4      -0.142000
     26 C28         -5.4960    -1.8000    -2.9600 ca         1 8M4       0.089100
     27 O29         -6.5200    -2.0580    -3.8480 os         1 8M4      -0.346100
     28 C30         -6.6380    -3.3150    -4.5380 c3         1 8M4       0.154900
     29 C31         -4.4850    -2.7420    -2.6670 ca         1 8M4      -0.142000
     30 C32         -3.4650    -2.4160    -1.7520 ca         1 8M4      -0.120500
     31 C33         -3.3600     0.5060     1.5380 ca         1 8M4      -0.140000
     32 O34         -5.5470     1.4620     3.0800 o          1 8M4      -0.716000
     33 H1           4.6490    -0.2670     1.8410 hc         1 8M4       0.069700
     34 H141         5.3970    -2.1290     3.3130 hc         1 8M4       0.036200
     35 H2           6.8680    -2.3340     2.3680 hc         1 8M4       0.036200
     36 H3           6.4380     1.7000     1.8650 hc         1 8M4       0.040450
     37 H171         7.9120     1.4940     0.9250 hc         1 8M4       0.040450
     38 H191         5.3790    -1.9070    -2.0780 ha         1 8M4       0.116000
     39 H211         1.7420     0.0210    -3.3580 ha         1 8M4       0.150000
     40 H041        -1.7800     2.5150     3.8110 ha         1 8M4       0.133000
     41 H051         0.1840     1.7470     2.5390 ha         1 8M4       0.090000
     42 H071         0.9640    -0.2390     1.0590 hn         1 8M4       0.166000
     43 H121         4.0570    -2.6200     1.2430 hc         1 8M4       0.048700
     44 H122         5.4620    -2.7310     0.2190 hc         1 8M4       0.048700
     45 H5           6.0950     0.1450     4.0260 hc         1 8M4       0.040450
     46 H151         7.3600    -1.0160     4.4160 hc         1 8M4       0.040450
     47 H6           8.6740    -0.3490     2.4120 hc         1 8M4       0.033700
     48 H161         8.3090     1.0770     3.3790 hc         1 8M4       0.033700
     49 H181         7.2060    -0.7740     0.1970 hc         1 8M4       0.036200
     50 H7           5.9500     0.3990    -0.1840 hc         1 8M4       0.036200
     51 H201         3.9790    -0.9490    -3.9300 ha         1 8M4       0.116000
     52 H241        -1.5610    -1.4040    -0.4060 hn         1 8M4       0.480000
     53 H261        -4.4260     0.7660    -0.9730 ha         1 8M4       0.122500
     54 H271        -6.2350     0.1930    -2.5690 ha         1 8M4       0.112000
     55 H302        -6.7480    -4.1430    -3.8260 h1         1 8M4       0.030367
     56 H301        -7.5200    -3.3090    -5.1910 h1         1 8M4       0.030367
     57 H303        -5.7540    -3.5020    -5.1620 h1         1 8M4       0.030367
     58 H311        -4.4730    -3.7230    -3.1340 ha         1 8M4       0.112000
     59 H321        -2.6920    -3.1470    -1.5310 ha         1 8M4       0.122500
     60 H331        -4.3430     0.1200     1.2870 ha         1 8M4       0.143000
     61 C08          0.5590     0.1860    -0.8860 c          1 8M4       0.494600
     62 C02         -4.4400     1.8580     3.4210 c          1 8M4       0.711600
@<TRIPOS>BOND
     1     1     5 ar  
     2     1    14 ar  
     3     1    15 1   
     4     2     3 1   
     5     2    15 1   
     6     2    18 1   
     7     2    33 1   
     8     3    16 1   
     9     3    34 1   
    10     3    35 1   
    11     4    17 1   
    12     4    18 1   
    13     4    36 1   
    14     4    37 1   
    15     5    19 ar  
    16     5    38 1   
    17     6    13 ar  
    18     6    19 ar  
    19     6    39 1   
    20     7    62 1   
    21     8     9 ar  
    22     8    31 ar  
    23     8    62 1   
    24     9    10 ar  
    25     9    40 1   
    26    10    11 ar  
    27    10    41 1   
    28    11    12 1   
    29    11    21 ar  
    30    12    42 1   
    31    12    61 1   
    32    13    14 ar  
    33    13    61 1   
    34    15    43 1   
    35    15    44 1   
    36    16    17 1   
    37    16    45 1   
    38    16    46 1   
    39    17    47 1   
    40    17    48 1   
    41    18    49 1   
    42    18    50 1   
    43    19    51 1   
    44    20    61 2   
    45    21    22 1   
    46    21    31 ar  
    47    22    23 1   
    48    22    52 1   
    49    23    24 ar  
    50    23    30 ar  
    51    24    25 ar  
    52    24    53 1   
    53    25    26 ar  
    54    25    54 1   
    55    26    27 1   
    56    26    29 ar  
    57    27    28 1   
    58    28    55 1   
    59    28    56 1   
    60    28    57 1   
    61    29    30 ar  
    62    29    58 1   
    63    30    59 1   
    64    31    60 1   
    65    32    62 1   
@<TRIPOS>SUBSTRUCTURE
     1 8M4         1 TEMP              0 ****  ****    0 ROOT
