@<TRIPOS>MOLECULE
8M4
   62    65     1     0     0
SMALL
abcg2


@<TRIPOS>ATOM
      1 C11          4.1220    -1.1940    -1.0330 ca         1 8M4       0.353300
      2 C13          5.1460    -1.1610     1.2840 c6         1 8M4      -0.056700
      3 C14          5.8640    -2.0290     2.3160 c6         1 8M4      -0.070400
      4 C17          6.2260     0.8820     2.3080 c6         1 8M4      -0.073900
      5 C19          4.6370    -0.9600    -2.3080 ca         1 8M4      -0.157000
      6 C21          2.6530     0.2640    -2.8340 ca         1 8M4      -0.114000
      7 O01         -3.8170     2.8810     3.9130 o          1 8M4      -0.716000
      8 C03         -2.8030     1.5790     2.2240 ca         1 8M4      -0.099600
      9 C04         -1.5240     1.9910     2.5910 ca         1 8M4      -0.111000
     10 C05         -0.4250     1.5050     1.9020 ca         1 8M4      -0.117000
     11 C06         -0.5750     0.6120     0.8520 ca         1 8M4      -0.154000
     12 N07          0.5670     0.1270     0.1750 ns         1 8M4      -0.135000
     13 C09          2.2200    -0.0180    -1.5480 ca         1 8M4       0.300500
     14 N10          2.9300    -0.7280    -0.6800 nb         1 8M4      -0.681000
     15 C12          4.8910    -1.9600     0.0030 c3         1 8M4      -0.120700
     16 C15          6.1460    -1.2670     3.6080 c6         1 8M4      -0.073900
     17 C16          6.9370     0.0080     3.3360 c6         1 8M4      -0.073400
     18 C18          5.9460     0.1150     1.0190 c6         1 8M4      -0.070400
     19 C20          3.8920    -0.2290    -3.2170 ca         1 8M4      -0.086000
     20 O22          0.2030     1.2240    -1.7780 o          1 8M4      -0.578100
     21 C23         -1.8560     0.1670     0.4810 ca         1 8M4       0.305000
     22 N24         -1.9720    -0.7700    -0.5220 nu         1 8M4      -0.989000
     23 C25         -3.1440    -1.1810    -1.1550 ca         1 8M4       0.302000
     24 C26         -4.1120    -0.2690    -1.5880 ca         1 8M4      -0.120500
     25 C27         -5.2480    -0.7020    -2.2430 ca         1 8M4      -0.142000
     26 C28         -5.4450    -2.0570    -2.5160 ca         1 8M4       0.089100
     27 O29         -6.5830    -2.3820    -3.1660 os         1 8M4      -0.346100
     28 C30         -6.8350    -3.7470    -3.4280 c3         1 8M4       0.154900
     29 C31         -4.4740    -2.9680    -2.1140 ca         1 8M4      -0.142000
     30 C32         -3.3460    -2.5290    -1.4300 ca         1 8M4      -0.120500
     31 C33         -2.9540     0.6720     1.1830 ca         1 8M4      -0.140000
     32 O34         -5.1390     1.6860     2.5760 o          1 8M4      -0.716000
     33 H1           4.1720    -0.8710     1.6970 hc         1 8M4       0.069700
     34 H141         5.2740    -2.9250     2.5270 hc         1 8M4       0.036200
     35 H2           6.8130    -2.3760     1.8890 hc         1 8M4       0.036200
     36 H3           5.2770     1.2320     2.7290 hc         1 8M4       0.040450
     37 H171         6.8170     1.7750     2.0910 hc         1 8M4       0.040450
     38 H191         5.6110    -1.3470    -2.5750 ha         1 8M4       0.116000
     39 H211         2.0470     0.8490    -3.5100 ha         1 8M4       0.150000
     40 H041        -1.3910     2.6900     3.4050 ha         1 8M4       0.133000
     41 H051         0.5750     1.8250     2.1710 ha         1 8M4       0.090000
     42 H071         1.2740    -0.3830     0.6880 hn         1 8M4       0.166000
     43 H121         4.3340    -2.8670     0.2580 hc         1 8M4       0.048700
     44 H122         5.8440    -2.2880    -0.4200 hc         1 8M4       0.048700
     45 H5           5.1970    -1.0090     4.0920 hc         1 8M4       0.040450
     46 H151         6.6880    -1.9080     4.3080 hc         1 8M4       0.040450
     47 H6           7.9310    -0.2560     2.9600 hc         1 8M4       0.033700
     48 H161         7.0930     0.5640     4.2640 hc         1 8M4       0.033700
     49 H181         6.8960    -0.1520     0.5390 hc         1 8M4       0.036200
     50 H7           5.4140     0.7610     0.3150 hc         1 8M4       0.036200
     51 H201         4.2730    -0.0380    -4.2110 ha         1 8M4       0.116000
     52 H241        -1.1650    -1.3570    -0.6660 hn         1 8M4       0.480000
     53 H261        -3.9740     0.7910    -1.4230 ha         1 8M4       0.122500
     54 H271        -5.9890     0.0200    -2.5660 ha         1 8M4       0.112000
     55 H302        -6.8880    -4.3360    -2.5080 h1         1 8M4       0.030367
     56 H301        -7.7990    -3.7940    -3.9290 h1         1 8M4       0.030367
     57 H303        -6.0780    -4.1870    -4.0830 h1         1 8M4       0.030367
     58 H311        -4.5780    -4.0270    -2.3080 ha         1 8M4       0.112000
     59 H321        -2.6110    -3.2570    -1.1100 ha         1 8M4       0.122500
     60 H331        -3.9520     0.3390     0.9370 ha         1 8M4       0.143000
     61 C08          0.8960     0.5120    -1.0740 c          1 8M4       0.494600
     62 C02         -4.0310     2.0950     2.9700 c          1 8M4       0.711600
@<TRIPOS>BOND
     1     1     5 ar  
     2     1    14 ar  
     3     1    15 1   
     4     2     3 1   
     5     2    15 1   
     6     2    18 1   
     7     2    33 1   
     8     3    16 1   
     9     3    34 1   
    10     3    35 1   
    11     4    17 1   
    12     4    18 1   
    13     4    36 1   
    14     4    37 1   
    15     5    19 ar  
    16     5    38 1   
    17     6    13 ar  
    18     6    19 ar  
    19     6    39 1   
    20     7    62 1   
    21     8     9 ar  
    22     8    31 ar  
    23     8    62 1   
    24     9    10 ar  
    25     9    40 1   
    26    10    11 ar  
    27    10    41 1   
    28    11    12 1   
    29    11    21 ar  
    30    12    42 1   
    31    12    61 1   
    32    13    14 ar  
    33    13    61 1   
    34    15    43 1   
    35    15    44 1   
    36    16    17 1   
    37    16    45 1   
    38    16    46 1   
    39    17    47 1   
    40    17    48 1   
    41    18    49 1   
    42    18    50 1   
    43    19    51 1   
    44    20    61 2   
    45    21    22 1   
    46    21    31 ar  
    47    22    23 1   
    48    22    52 1   
    49    23    24 ar  
    50    23    30 ar  
    51    24    25 ar  
    52    24    53 1   
    53    25    26 ar  
    54    25    54 1   
    55    26    27 1   
    56    26    29 ar  
    57    27    28 1   
    58    28    55 1   
    59    28    56 1   
    60    28    57 1   
    61    29    30 ar  
    62    29    58 1   
    63    30    59 1   
    64    31    60 1   
    65    32    62 1   
@<TRIPOS>SUBSTRUCTURE
     1 8M4         1 TEMP              0 ****  ****    0 ROOT
