@<TRIPOS>MOLECULE
8M5
   33    35     1     0     0
SMALL
No Charge or Current Charge


@<TRIPOS>ATOM
      1 C1          -4.8660     1.2700     0.0100 ca         1 8M5      -0.091000
      2 C2          -4.4800    -0.0860    -0.0360 ca         1 8M5      -0.125000
      3 C3          -3.1070    -0.3810    -0.0310 ca         1 8M5      -0.062200
      4 C4          -2.1610     0.6090     0.0150 ca         1 8M5      -0.051800
      5 C5          -2.5140     1.9680     0.0610 ca         1 8M5      -0.049000
      6 C6          -3.8880     2.2920     0.0580 ca         1 8M5      -0.135000
      7 C15         -1.0720    -1.4530    -0.0480 cc         1 8M5      -0.118100
      8 N19         -2.4690    -1.6130    -0.0690 na         1 8M5      -0.074700
      9 C24          3.5720     1.1180     0.1040 ca         1 8M5      -0.155000
     10 C25          4.9760     1.2010     0.1240 ca         1 8M5      -0.082500
     11 C26          5.7520     0.0320     0.0840 ca         1 8M5      -0.141000
     12 C27          5.1250    -1.2220     0.0250 ca         1 8M5      -0.082500
     13 C28          3.7220    -1.3040     0.0060 ca         1 8M5      -0.155000
     14 C29          2.9310    -0.1400     0.0450 ca         1 8M5      -0.012000
     15 N35          1.5180    -0.3070     0.0230 ns         1 8M5      -0.150000
     16 O37          0.6020     1.8150     0.0900 o          1 8M5      -0.585100
     17 CAE         -0.8760    -0.0700     0.0050 cd         1 8M5      -0.224400
     18 H1          -5.9220     1.5320     0.0070 ha         1 8M5       0.111000
     19 H2          -5.2280    -0.8740    -0.0730 ha         1 8M5       0.113000
     20 H6          -4.1960     3.3340     0.0920 ha         1 8M5       0.114000
     21 H5          -1.7630     2.7520     0.0980 ha         1 8M5       0.139000
     22 H15         -0.3850    -2.2930    -0.0710 h4         1 8M5       0.210000
     23 H181        -3.8390    -2.8990    -1.0270 h1         1 8M5       0.053367
     24 H182        -2.5190    -3.7240    -0.1470 h1         1 8M5       0.053367
     25 H183        -3.8590    -2.9650     0.7620 h1         1 8M5       0.053367
     26 H25          5.4620     2.1740     0.1690 ha         1 8M5       0.111000
     27 H26          6.8380     0.0990     0.0990 ha         1 8M5       0.114000
     28 H27          5.7250    -2.1290    -0.0060 ha         1 8M5       0.111000
     29 H28          3.2490    -2.2830    -0.0400 ha         1 8M5       0.125500
     30 H35          1.2280    -1.2730    -0.0170 hn         1 8M5       0.144000
     31 C18         -3.2180    -2.8780    -0.1230 c3         1 8M5       0.060900
     32 C33          0.4630     0.5980     0.0440 c          1 8M5       0.655300
     33 H24          3.0060     2.0430     0.1370 ha         1 8M5       0.125500
@<TRIPOS>BOND
     1     1     2 ar  
     2     1     6 ar  
     3     1    18 1   
     4     2     3 ar  
     5     2    19 1   
     6     3     4 ar  
     7     3     8 1   
     8     4     5 ar  
     9     4    17 1   
    10     5     6 ar  
    11     5    21 1   
    12     6    20 1   
    13     7     8 1   
    14     7    17 2   
    15     7    22 1   
    16     8    31 1   
    17     9    10 ar  
    18     9    14 ar  
    19     9    33 1   
    20    10    11 ar  
    21    10    26 1   
    22    11    12 ar  
    23    11    27 1   
    24    12    13 ar  
    25    12    28 1   
    26    13    14 ar  
    27    13    29 1   
    28    14    15 1   
    29    15    30 1   
    30    15    32 1   
    31    16    32 2   
    32    17    32 1   
    33    23    31 1   
    34    24    31 1   
    35    25    31 1   
@<TRIPOS>SUBSTRUCTURE
     1 8M5         1 TEMP              0 ****  ****    0 ROOT
