@<TRIPOS>MOLECULE
8M5
   33    35     1     0     0
SMALL
abcg2


@<TRIPOS>ATOM
      1 C1          -4.7710     1.2910    -0.2240 ca         1 8M5      -0.091000
      2 C2          -4.4520    -0.0480    -0.1130 ca         1 8M5      -0.125000
      3 C3          -3.1020    -0.3760    -0.0120 ca         1 8M5      -0.062200
      4 C4          -2.0800     0.5950    -0.0160 ca         1 8M5      -0.051800
      5 C5          -2.4330     1.9440    -0.1320 ca         1 8M5      -0.049000
      6 C6          -3.7710     2.2750    -0.2340 ca         1 8M5      -0.135000
      7 C15         -1.1750    -1.4570     0.1670 cc         1 8M5      -0.118100
      8 N19         -2.5160    -1.6110     0.1040 na         1 8M5      -0.074700
      9 C24          3.4890     1.0310     0.4460 ca         1 8M5      -0.155000
     10 C25          4.8740     1.1410     0.4820 ca         1 8M5      -0.082500
     11 C26          5.6940     0.1010     0.0730 ca         1 8M5      -0.141000
     12 C27          5.1090    -1.0750    -0.3780 ca         1 8M5      -0.082500
     13 C28          3.7320    -1.2020    -0.4190 ca         1 8M5      -0.155000
     14 C29          2.9020    -0.1520    -0.0090 ca         1 8M5      -0.012000
     15 N35          1.5270    -0.3830    -0.0760 ns         1 8M5      -0.150000
     16 O37          0.6490     1.6620     0.4090 o          1 8M5      -0.585100
     17 CAE         -0.8410    -0.1240     0.0900 cd         1 8M5      -0.224400
     18 H1          -5.8090     1.5850    -0.3050 ha         1 8M5       0.111000
     19 H2          -5.2220    -0.8080    -0.1060 ha         1 8M5       0.113000
     20 H6          -4.0550     3.3160    -0.3230 ha         1 8M5       0.114000
     21 H5          -1.6770     2.7150    -0.1380 ha         1 8M5       0.139000
     22 H15         -0.5440    -2.3250     0.2880 h4         1 8M5       0.210000
     23 H181        -3.8740    -2.9920    -0.6830 h1         1 8M5       0.053367
     24 H182        -2.5210    -3.6820     0.2210 h1         1 8M5       0.053367
     25 H183        -3.8490    -2.8950     1.0860 h1         1 8M5       0.053367
     26 H25          5.3110     2.0650     0.8390 ha         1 8M5       0.111000
     27 H26          6.7710     0.2030     0.1050 ha         1 8M5       0.114000
     28 H27          5.7250    -1.9040    -0.7020 ha         1 8M5       0.111000
     29 H28          3.2900    -2.1260    -0.7740 ha         1 8M5       0.125500
     30 H35          1.2800    -1.3000    -0.4140 hn         1 8M5       0.144000
     31 C18         -3.2330    -2.8620     0.1870 c3         1 8M5       0.060900
     32 C33          0.4920     0.4760     0.1600 c          1 8M5       0.655300
     33 H24          2.8860     1.8620     0.7710 ha         1 8M5       0.125500
@<TRIPOS>BOND
     1     1     2 ar  
     2     1     6 ar  
     3     1    18 1   
     4     2     3 ar  
     5     2    19 1   
     6     3     4 ar  
     7     3     8 1   
     8     4     5 ar  
     9     4    17 1   
    10     5     6 ar  
    11     5    21 1   
    12     6    20 1   
    13     7     8 1   
    14     7    17 2   
    15     7    22 1   
    16     8    31 1   
    17     9    10 ar  
    18     9    14 ar  
    19     9    33 1   
    20    10    11 ar  
    21    10    26 1   
    22    11    12 ar  
    23    11    27 1   
    24    12    13 ar  
    25    12    28 1   
    26    13    14 ar  
    27    13    29 1   
    28    14    15 1   
    29    15    30 1   
    30    15    32 1   
    31    16    32 2   
    32    17    32 1   
    33    23    31 1   
    34    24    31 1   
    35    25    31 1   
@<TRIPOS>SUBSTRUCTURE
     1 8M5         1 TEMP              0 ****  ****    0 ROOT
