@<TRIPOS>MOLECULE
8M6
   58    62     1     0     0
SMALL
abcg2


@<TRIPOS>ATOM
      1 N1          17.0430     3.9310     8.0080 nc         1 8M6      -0.637100
      2 N3          13.0950     6.4870    11.9140 n          1 8M6      -0.411800
      3 C4          14.7240     2.4970     8.8350 c          1 8M6       0.604600
      4 C5          14.9390     5.7520    10.5750 cc         1 8M6      -0.255300
      5 C6          14.3220     4.5670    10.3340 cd         1 8M6      -0.019300
      6 C7          14.4580     6.7940    11.5370 c6         1 8M6       0.168300
      7 C8          12.8880     5.0960    12.2720 c6         1 8M6       0.101000
      8 C10         12.1100     7.4010    11.7350 c          1 8M6       0.610100
      9 C13         14.8770     0.6960     6.0240 cc         1 8M6       0.089300
     10 C15         14.2430     0.4770     3.9020 cd         1 8M6      -0.189000
     11 C17         19.0200     3.3660     6.1530 c3         1 8M6      -0.063400
     12 C20         17.7270     7.5910     4.9360 ca         1 8M6       0.386300
     13 C21         18.2520     8.9900     3.1920 ca         1 8M6       0.345900
     14 C22         19.3980     8.2830     2.8720 ca         1 8M6      -0.164000
     15 C24         16.8080     7.2910     6.0770 c3         1 8M6      -0.149400
     16 C1          16.7800     2.7480     7.5610 cd         1 8M6       0.528800
     17 C2          16.1760     4.4230     8.9100 cc         1 8M6       0.092400
     18 C3          15.0370     3.7950     9.3640 cd         1 8M6      -0.237600
     19 N2          15.6970     2.0060     7.9380 n          1 8M6      -0.313300
     20 S1          16.3900     5.9630     9.6510 ss         1 8M6       0.262000
     21 C9          13.0680     4.1880    11.0610 c6         1 8M6      -0.038100
     22 C11         10.6990     6.9580    12.0420 c3         1 8M6      -0.176100
     23 O1          12.3450     8.5390    11.3550 o          1 8M6      -0.600100
     24 C12         15.4730     0.6670     7.3840 c3         1 8M6       0.060700
     25 O2          13.7320     1.3900     5.8570 os         1 8M6      -0.218000
     26 C14         13.3590     1.2560     4.5670 cc         1 8M6       0.139900
     27 C16         15.2410     0.1140     4.8560 cd         1 8M6      -0.154000
     28 S2          17.8720     2.0150     6.4010 ss         1 8M6      -0.162200
     29 C18         18.4080     4.5250     5.3800 c          1 8M6       0.618100
     30 O3          17.3830     4.4260     4.7410 o          1 8M6      -0.553100
     31 N4          19.1460     5.6570     5.4400 ns         1 8M6      -0.160000
     32 C19         18.8490     6.7990     4.6630 ca         1 8M6      -0.106000
     33 N5          17.4470     8.6580     4.1930 nb         1 8M6      -0.671000
     34 C23         19.6940     7.1590     3.6250 ca         1 8M6      -0.087000
     35 O4          13.7390     1.8350     9.1030 o          1 8M6      -0.527000
     36 H1          15.0980     6.8150    12.4270 h1         1 8M6       0.072700
     37 H2          14.4930     7.7860    11.0910 h1         1 8M6       0.072700
     38 H3          11.9070     4.9540    12.7150 h1         1 8M6       0.053700
     39 H4          13.6200     4.8320    13.0400 h1         1 8M6       0.053700
     40 H5          14.1980     0.2010     2.8610 ha         1 8M6       0.143000
     41 H6          19.8260     2.9320     5.5540 h1         1 8M6       0.097200
     42 H7          19.4550     3.6890     7.0980 h1         1 8M6       0.097200
     43 H8          17.9740     9.8710     2.6230 h4         1 8M6       0.021100
     44 H9          20.0320     8.5960     2.0550 ha         1 8M6       0.125000
     45 H10         16.2520     8.1850     6.3520 hc         1 8M6       0.060367
     46 H11         16.0880     6.5140     5.8160 hc         1 8M6       0.060367
     47 H12         17.3580     6.9380     6.9490 hc         1 8M6       0.060367
     48 H13         12.2040     4.2690    10.3940 hc         1 8M6       0.072200
     49 H14         13.1100     3.1500    11.3920 hc         1 8M6       0.072200
     50 H15         10.0190     7.7790    11.8300 hc         1 8M6       0.061367
     51 H16         10.4020     6.0990    11.4400 hc         1 8M6       0.061367
     52 H17         10.5830     6.6800    13.0900 hc         1 8M6       0.061367
     53 H18         14.8280     0.1380     8.0830 h1         1 8M6       0.088200
     54 H19         16.4120     0.1140     7.3590 h1         1 8M6       0.088200
     55 H20         12.4580     1.7670     4.2690 h4         1 8M6       0.056100
     56 H21         16.1180    -0.4910     4.6920 ha         1 8M6       0.139000
     57 H22         20.0420     5.6290     5.9050 hn         1 8M6       0.154000
     58 H23         20.5700     6.5600     3.4100 ha         1 8M6       0.117000
@<TRIPOS>BOND
     1     1    16 2   
     2     1    17 1   
     3     2     6 1   
     4     2     7 1   
     5     2     8 1   
     6     3    18 1   
     7     3    19 1   
     8     3    35 2   
     9     4     5 2   
    10     4     6 1   
    11     4    20 1   
    12     5    18 1   
    13     5    21 1   
    14     6    36 1   
    15     6    37 1   
    16     7    21 1   
    17     7    38 1   
    18     7    39 1   
    19     8    22 1   
    20     8    23 2   
    21     9    24 1   
    22     9    25 1   
    23     9    27 2   
    24    10    26 2   
    25    10    27 1   
    26    10    40 1   
    27    11    28 1   
    28    11    29 1   
    29    11    41 1   
    30    11    42 1   
    31    12    15 1   
    32    12    32 ar  
    33    12    33 ar  
    34    13    14 ar  
    35    13    33 ar  
    36    13    43 1   
    37    14    34 ar  
    38    14    44 1   
    39    15    45 1   
    40    15    46 1   
    41    15    47 1   
    42    16    19 1   
    43    16    28 1   
    44    17    18 2   
    45    17    20 1   
    46    19    24 1   
    47    21    48 1   
    48    21    49 1   
    49    22    50 1   
    50    22    51 1   
    51    22    52 1   
    52    24    53 1   
    53    24    54 1   
    54    25    26 1   
    55    26    55 1   
    56    27    56 1   
    57    29    30 2   
    58    29    31 1   
    59    31    32 1   
    60    31    57 1   
    61    32    34 ar  
    62    34    58 1   
@<TRIPOS>SUBSTRUCTURE
     1 8M6         1 TEMP              0 ****  ****    0 ROOT
