@<TRIPOS>MOLECULE
8M6
   58    62     1     0     0
SMALL
No Charge or Current Charge


@<TRIPOS>ATOM
      1 N1          17.7160     3.5230     8.2940 nc         1 8M6      -0.637100
      2 N3          13.5750     7.0960    11.3840 n          1 8M6      -0.411800
      3 C4          14.9910     2.6560     8.6200 c          1 8M6       0.604600
      4 C5          15.5610     5.9520    10.3730 cc         1 8M6      -0.255300
      5 C6          14.8030     4.8690    10.0040 cd         1 8M6      -0.019300
      6 C7          15.0490     7.1280    11.1670 c6         1 8M6       0.168300
      7 C8          13.0090     5.7280    11.5660 c6         1 8M6       0.101000
      8 C10         12.9100     8.2640    11.8230 c          1 8M6       0.610100
      9 C13         15.1180     0.9810     5.7350 cc         1 8M6       0.089300
     10 C15         14.9770     1.1810     3.5170 cd         1 8M6      -0.189000
     11 C17         19.4820     2.7760     6.0350 c3         1 8M6      -0.063400
     12 C20         16.4750     6.1730     5.0840 ca         1 8M6       0.386300
     13 C21         16.4240     8.4720     4.7490 ca         1 8M6       0.345900
     14 C22         17.7670     8.6080     5.1320 ca         1 8M6      -0.164000
     15 C24         15.6390     4.9020     5.1140 c3         1 8M6      -0.149400
     16 C1          17.2260     2.4110     7.7640 cd         1 8M6       0.528800
     17 C2          16.8280     4.2730     9.0240 cc         1 8M6       0.092400
     18 C3          15.5190     3.9070     9.2140 cd         1 8M6      -0.237600
     19 N2          15.9290     1.9220     7.8790 n          1 8M6      -0.313300
     20 S1          17.2130     5.8110     9.7950 ss         1 8M6       0.262000
     21 C9          13.3460     4.7760    10.3950 c6         1 8M6      -0.038100
     22 C11         11.3940     8.2300    12.0260 c3         1 8M6      -0.176100
     23 O1          13.5240     9.3110    11.9860 o          1 8M6      -0.600100
     24 C12         15.4710     0.6910     7.1710 c3         1 8M6       0.060700
     25 O2          14.0240     1.7720     5.4570 os         1 8M6      -0.218000
     26 C14         13.9510     1.8850     4.0860 cc         1 8M6       0.139900
     27 C16         15.7190     0.6040     4.5670 cd         1 8M6      -0.154000
     28 S2          18.3360     1.4870     6.7280 ss         1 8M6      -0.162200
     29 C18         18.7160     3.8290     5.2260 c          1 8M6       0.618100
     30 O3          18.2530     3.5840     4.1180 o          1 8M6      -0.553100
     31 N4          18.6010     5.0690     5.8350 ns         1 8M6      -0.160000
     32 C19         17.8500     6.2160     5.4560 ca         1 8M6      -0.106000
     33 N5          15.7830     7.2820     4.7320 nb         1 8M6      -0.671000
     34 C23         18.4930     7.4650     5.4980 ca         1 8M6      -0.087000
     35 O4          13.8300     2.2900     8.7510 o          1 8M6      -0.527000
     36 H1          15.5470     7.1650    12.1460 h1         1 8M6       0.072700
     37 H2          15.3130     8.0580    10.6420 h1         1 8M6       0.072700
     38 H3          11.9190     5.7490    11.6880 h1         1 8M6       0.053700
     39 H4          13.4260     5.3070    12.4930 h1         1 8M6       0.053700
     40 H5          15.1750     1.0900     2.4540 ha         1 8M6       0.143000
     41 H6          20.2100     2.2990     5.3680 h1         1 8M6       0.097200
     42 H7          20.0260     3.2660     6.8510 h1         1 8M6       0.097200
     43 H8          15.8390     9.3440     4.4590 h4         1 8M6       0.021100
     44 H9          18.2320     9.5890     5.1410 ha         1 8M6       0.125000
     45 H10         14.5810     5.1210     5.2970 hc         1 8M6       0.060367
     46 H11         15.7040     4.3690     4.1590 hc         1 8M6       0.060367
     47 H12         15.9630     4.2240     5.9090 hc         1 8M6       0.060367
     48 H13         12.7170     5.0280     9.5310 hc         1 8M6       0.072200
     49 H14         13.0770     3.7550    10.6940 hc         1 8M6       0.072200
     50 H15         10.9760     9.2240    12.2200 hc         1 8M6       0.061367
     51 H16         10.9200     7.7520    11.1620 hc         1 8M6       0.061367
     52 H17         11.1600     7.5440    12.8480 hc         1 8M6       0.061367
     53 H18         14.5890     0.2670     7.6690 h1         1 8M6       0.088200
     54 H19         16.2420    -0.0890     7.2150 h1         1 8M6       0.088200
     55 H20         13.1500     2.4770     3.6650 h4         1 8M6       0.056100
     56 H21         16.6050    -0.0170     4.4720 ha         1 8M6       0.139000
     57 H22         19.0760     5.1530     6.7260 hn         1 8M6       0.154000
     58 H23         19.5370     7.5480     5.7960 ha         1 8M6       0.117000
@<TRIPOS>BOND
     1     1    16 2   
     2     1    17 1   
     3     2     6 1   
     4     2     7 1   
     5     2     8 1   
     6     3    18 1   
     7     3    19 1   
     8     3    35 2   
     9     4     5 2   
    10     4     6 1   
    11     4    20 1   
    12     5    18 1   
    13     5    21 1   
    14     6    36 1   
    15     6    37 1   
    16     7    21 1   
    17     7    38 1   
    18     7    39 1   
    19     8    22 1   
    20     8    23 2   
    21     9    24 1   
    22     9    25 1   
    23     9    27 2   
    24    10    26 2   
    25    10    27 1   
    26    10    40 1   
    27    11    28 1   
    28    11    29 1   
    29    11    41 1   
    30    11    42 1   
    31    12    15 1   
    32    12    32 ar  
    33    12    33 ar  
    34    13    14 ar  
    35    13    33 ar  
    36    13    43 1   
    37    14    34 ar  
    38    14    44 1   
    39    15    45 1   
    40    15    46 1   
    41    15    47 1   
    42    16    19 1   
    43    16    28 1   
    44    17    18 2   
    45    17    20 1   
    46    19    24 1   
    47    21    48 1   
    48    21    49 1   
    49    22    50 1   
    50    22    51 1   
    51    22    52 1   
    52    24    53 1   
    53    24    54 1   
    54    25    26 1   
    55    26    55 1   
    56    27    56 1   
    57    29    30 2   
    58    29    31 1   
    59    31    32 1   
    60    31    57 1   
    61    32    34 ar  
    62    34    58 1   
@<TRIPOS>SUBSTRUCTURE
     1 8M6         1 TEMP              0 ****  ****    0 ROOT
