@<TRIPOS>MOLECULE
8M7
   56    57     1     0     0
SMALL
No Charge or Current Charge


@<TRIPOS>ATOM
      1 C1          -3.5350     4.5190    -0.2070 c3         1 8M7      -0.064900
      2 C2          -3.2550     5.1110    -1.6070 c3         1 8M7      -0.092100
      3 C3          -2.4200     3.6060     0.3910 c3         1 8M7      -0.134700
      4 C4          -2.3250     2.2450    -0.3340 c          1 8M7       0.622100
      5 C5          -2.6100    -0.2700    -0.0200 c6         1 8M7       0.055400
      6 C6          -3.4330    -1.1950     0.9110 c6         1 8M7       0.156300
      7 C7          -3.3350    -2.6640     0.4230 c6         1 8M7       0.101300
      8 C8          -1.8350    -3.0850     0.4260 c6         1 8M7       0.153300
      9 C9          -1.5990    -4.5240    -0.1420 c3         1 8M7       0.169600
     10 C10         -1.1650    -0.8010    -0.1330 c2         1 8M7       0.551600
     11 C11          2.2760     0.0190    -0.0910 c          1 8M7       0.654100
     12 C12          4.7770    -0.5360    -0.2350 ca         1 8M7      -0.003000
     13 O1          -1.9440     2.1220    -1.4900 o          1 8M7      -0.594100
     14 O2          -4.8100    -0.7880     0.9560 oh         1 8M7      -0.637000
     15 O3          -4.1330    -3.5130     1.2760 oh         1 8M7      -0.657000
     16 N1          -2.6960     1.1530     0.4190 ns         1 8M7      -0.487900
     17 N2          -0.1090    -0.0540    -0.0520 n2         1 8M7      -0.305700
     18 N3           3.3810    -0.8010    -0.2420 ns         1 8M7      -0.148000
     19 O4          -0.2090    -4.8980    -0.1720 oh         1 8M7      -0.640000
     20 O5          -1.0260    -2.1590    -0.3440 os         1 8M7      -0.430600
     21 O6           1.1370    -0.7540    -0.1820 os         1 8M7      -0.302100
     22 O7           2.2930     1.2310     0.0940 o          1 8M7      -0.481000
     23 C13          5.3240     0.7550    -0.0550 ca         1 8M7      -0.152500
     24 C14          6.7180     0.9430    -0.0590 ca         1 8M7      -0.082000
     25 C15          7.5770    -0.1520    -0.2420 ca         1 8M7      -0.139000
     26 C16          7.0430    -1.4370    -0.4210 ca         1 8M7      -0.082000
     27 C17          5.6500    -1.6260    -0.4170 ca         1 8M7      -0.152500
     28 C18         -1.0170     4.2710     0.4970 c3         1 8M7      -0.064900
     29 C19         -0.9750     5.5390     1.3760 c3         1 8M7      -0.092100
     30 H12         -3.7280     5.3480     0.4850 hc         1 8M7       0.046700
     31 H11         -4.4700     3.9460    -0.2520 hc         1 8M7       0.046700
     32 H22         -3.1170     4.3230    -2.3550 hc         1 8M7       0.035367
     33 H21         -4.1010     5.7310    -1.9280 hc         1 8M7       0.035367
     34 H23         -2.3620     5.7460    -1.5990 hc         1 8M7       0.035367
     35 H31         -2.7390     3.3910     1.4180 hc         1 8M7       0.059700
     36 H51         -3.0470    -0.3310    -1.0270 h1         1 8M7       0.122700
     37 H61         -3.0020    -1.1390     1.9230 h1         1 8M7       0.047700
     38 H71         -3.7080    -2.7140    -0.6120 h1         1 8M7       0.063700
     39 H81         -1.4720    -3.0720     1.4640 h1         1 8M7       0.077700
     40 H92         -2.1590    -5.2370     0.4760 h1         1 8M7       0.029700
     41 H91         -2.0200    -4.5660    -1.1550 h1         1 8M7       0.029700
     42 H25         -5.2890    -1.5650     1.3260 ho         1 8M7       0.461000
     43 H33         -4.3790    -4.3150     0.7590 ho         1 8M7       0.456000
     44 H13         -3.0420     1.3450     1.3520 hn         1 8M7       0.319500
     45 H32          3.1460    -1.7740    -0.3850 hn         1 8M7       0.168000
     46 H41         -0.1590    -5.7840    -0.5940 ho         1 8M7       0.448000
     47 H131         4.6900     1.6240     0.0880 ha         1 8M7       0.128500
     48 H141         7.1310     1.9400     0.0800 ha         1 8M7       0.113000
     49 H151         8.6550    -0.0040    -0.2440 ha         1 8M7       0.114000
     50 H161         7.7080    -2.2880    -0.5630 ha         1 8M7       0.113000
     51 H171         5.2490    -2.6270    -0.5570 ha         1 8M7       0.128500
     52 H182        -0.3170     3.5400     0.9210 hc         1 8M7       0.046700
     53 H181        -0.6370     4.5110    -0.5030 hc         1 8M7       0.046700
     54 H192        -1.3580     5.3280     2.3820 hc         1 8M7       0.035367
     55 H193         0.0560     5.8990     1.4720 hc         1 8M7       0.035367
     56 H191        -1.5740     6.3450     0.9370 hc         1 8M7       0.035367
@<TRIPOS>BOND
     1     1     2 1   
     2     1     3 1   
     3     1    30 1   
     4     1    31 1   
     5     2    32 1   
     6     2    33 1   
     7     2    34 1   
     8     3     4 1   
     9     3    28 1   
    10     3    35 1   
    11     4    13 2   
    12     4    16 1   
    13     5     6 1   
    14     5    10 1   
    15     5    16 1   
    16     5    36 1   
    17     6     7 1   
    18     6    14 1   
    19     6    37 1   
    20     7     8 1   
    21     7    15 1   
    22     7    38 1   
    23     8     9 1   
    24     8    20 1   
    25     8    39 1   
    26     9    19 1   
    27     9    40 1   
    28     9    41 1   
    29    10    17 2   
    30    10    20 1   
    31    11    18 1   
    32    11    21 1   
    33    11    22 2   
    34    12    18 1   
    35    12    23 ar  
    36    12    27 ar  
    37    14    42 1   
    38    15    43 1   
    39    16    44 1   
    40    17    21 1   
    41    18    45 1   
    42    19    46 1   
    43    23    24 ar  
    44    23    47 1   
    45    24    25 ar  
    46    24    48 1   
    47    25    26 ar  
    48    25    49 1   
    49    26    27 ar  
    50    26    50 1   
    51    27    51 1   
    52    28    29 1   
    53    28    52 1   
    54    28    53 1   
    55    29    54 1   
    56    29    55 1   
    57    29    56 1   
@<TRIPOS>SUBSTRUCTURE
     1 8M7         1 TEMP              0 ****  ****    0 ROOT
