@<TRIPOS>MOLECULE
8M7
   56    57     1     0     0
SMALL
bcc


@<TRIPOS>ATOM
      1 C1          -3.3390     3.9240     0.9720 c3         1 8M7      -0.064900
      2 C2          -4.6140     3.9580     0.1410 c3         1 8M7      -0.092100
      3 C3          -2.0390     3.7820     0.1570 c3         1 8M7      -0.134700
      4 C4          -2.0670     2.4700    -0.6080 c          1 8M7       0.689100
      5 C5          -1.9840     0.0380    -0.3070 c6         1 8M7       0.055400
      6 C6          -3.1290    -0.6780     0.4050 c6         1 8M7       0.133100
      7 C7          -3.1770    -2.1300    -0.0520 c6         1 8M7       0.078100
      8 C8          -1.8420    -2.8010     0.2680 c6         1 8M7       0.130100
      9 C9          -1.7550    -4.2100    -0.2710 c3         1 8M7       0.146400
     10 C10         -0.7000    -0.7510    -0.1980 c2         1 8M7       0.551600
     11 C11          2.6470    -0.3170     0.0890 c          1 8M7       0.770100
     12 C12          5.0150    -1.0320     0.1280 ca         1 8M7       0.089600
     13 O1          -2.3040     2.3970    -1.8040 o          1 8M7      -0.594100
     14 O2          -4.3030     0.0130     0.0930 oh         1 8M7      -0.574800
     15 O3          -4.2230    -2.7620     0.6430 oh         1 8M7      -0.594800
     16 N1          -1.8350     1.3820     0.1560 ns         1 8M7      -0.554900
     17 N2           0.3900    -0.1030    -0.1210 n2         1 8M7      -0.404200
     18 N3           3.6380    -1.2350    -0.0050 ns         1 8M7      -0.474100
     19 O4          -0.5460    -4.7860     0.1530 oh         1 8M7      -0.577800
     20 O5          -0.7440    -2.0720    -0.3060 os         1 8M7      -0.407400
     21 O6           1.4730    -0.9610    -0.1070 os         1 8M7      -0.203600
     22 O7           2.7590     0.8590     0.3110 o          1 8M7      -0.530000
     23 C13          5.5980     0.1550     0.5740 ca         1 8M7      -0.170500
     24 C14          6.9810     0.2430     0.6740 ca         1 8M7      -0.100000
     25 C15          7.7990    -0.8260     0.3430 ca         1 8M7      -0.157000
     26 C16          7.2150    -2.0080    -0.0940 ca         1 8M7      -0.100000
     27 C17          5.8390    -2.1110    -0.2020 ca         1 8M7      -0.170500
     28 C18         -1.7630     4.9600    -0.7760 c3         1 8M7      -0.064900
     29 C19         -1.6680     6.2940    -0.0470 c3         1 8M7      -0.092100
     30 H12         -3.2670     4.8300     1.5770 hc         1 8M7       0.046700
     31 H11         -3.4030     3.1020     1.6900 hc         1 8M7       0.046700
     32 H22         -4.7690     3.0220    -0.3960 hc         1 8M7       0.035367
     33 H21         -5.4820     4.1110     0.7830 hc         1 8M7       0.035367
     34 H23         -4.6040     4.7660    -0.5910 hc         1 8M7       0.035367
     35 H31         -1.2170     3.7270     0.8820 hc         1 8M7       0.059700
     36 H51         -2.2310     0.0810    -1.3740 h1         1 8M7       0.122700
     37 H61         -2.9340    -0.6650     1.4900 h1         1 8M7       0.047700
     38 H71         -3.3460    -2.1530    -1.1380 h1         1 8M7       0.063700
     39 H81         -1.7070    -2.8180     1.3570 h1         1 8M7       0.077700
     40 H92         -2.6210    -4.7660     0.1060 h1         1 8M7       0.029700
     41 H91         -1.8390    -4.1810    -1.3660 h1         1 8M7       0.029700
     42 H25         -5.0200    -0.3640     0.6130 ho         1 8M7       0.422000
     43 H33         -4.6210    -3.4320     0.0800 ho         1 8M7       0.417000
     44 H13         -1.6230     1.5150     1.1330 hn         1 8M7       0.319500
     45 H32          3.3600    -2.1740    -0.2510 hn         1 8M7       0.334500
     46 H41         -0.5440    -5.7080    -0.1200 ho         1 8M7       0.409000
     47 H131         4.9960     1.0060     0.8450 ha         1 8M7       0.146500
     48 H141         7.4170     1.1700     1.0230 ha         1 8M7       0.131000
     49 H151         8.8750    -0.7420     0.4260 ha         1 8M7       0.132000
     50 H161         7.8310    -2.8580    -0.3580 ha         1 8M7       0.131000
     51 H171         5.3970    -3.0370    -0.5500 ha         1 8M7       0.146500
     52 H182        -0.8220     4.7760    -1.3000 hc         1 8M7       0.046700
     53 H181        -2.5310     5.0220    -1.5500 hc         1 8M7       0.046700
     54 H192        -0.9510     6.2490     0.7750 hc         1 8M7       0.035367
     55 H193        -1.3400     7.0800    -0.7280 hc         1 8M7       0.035367
     56 H191        -2.6270     6.6050     0.3670 hc         1 8M7       0.035367
@<TRIPOS>BOND
     1     1     2 1   
     2     1     3 1   
     3     1    30 1   
     4     1    31 1   
     5     2    32 1   
     6     2    33 1   
     7     2    34 1   
     8     3     4 1   
     9     3    28 1   
    10     3    35 1   
    11     4    13 2   
    12     4    16 1   
    13     5     6 1   
    14     5    10 1   
    15     5    16 1   
    16     5    36 1   
    17     6     7 1   
    18     6    14 1   
    19     6    37 1   
    20     7     8 1   
    21     7    15 1   
    22     7    38 1   
    23     8     9 1   
    24     8    20 1   
    25     8    39 1   
    26     9    19 1   
    27     9    40 1   
    28     9    41 1   
    29    10    17 2   
    30    10    20 1   
    31    11    18 1   
    32    11    21 1   
    33    11    22 2   
    34    12    18 1   
    35    12    23 ar  
    36    12    27 ar  
    37    14    42 1   
    38    15    43 1   
    39    16    44 1   
    40    17    21 1   
    41    18    45 1   
    42    19    46 1   
    43    23    24 ar  
    44    23    47 1   
    45    24    25 ar  
    46    24    48 1   
    47    25    26 ar  
    48    25    49 1   
    49    26    27 ar  
    50    26    50 1   
    51    27    51 1   
    52    28    29 1   
    53    28    52 1   
    54    28    53 1   
    55    29    54 1   
    56    29    55 1   
    57    29    56 1   
@<TRIPOS>SUBSTRUCTURE
     1 8M7         1 TEMP              0 ****  ****    0 ROOT
