@<TRIPOS>MOLECULE
8M8
   22    23     1     0     0
SMALL
No Charge or Current Charge


@<TRIPOS>ATOM
      1 C4          -1.9980     0.4020     0.0460 cc         1 8M8      -0.172000
      2 C5          -3.2920     0.9850     0.0750 cg         1 8M8       0.352000
      3 C6           1.8920     0.2050    -0.0260 cc         1 8M8       0.611500
      4 N1           2.7550    -0.8490    -0.0520 nc         1 8M8      -0.685000
      5 C7           3.9520    -0.2970    -0.0680 cd         1 8M8       0.414400
      6 N2           3.7950     1.0730    -0.0520 na         1 8M8      -0.181700
      7 N3           2.4590     1.4010    -0.0250 nd         1 8M8      -0.542800
      8 N           -4.3660     1.4410     0.0990 n1         1 8M8      -0.452000
      9 C1          -1.6760    -0.9400     0.0270 cd         1 8M8      -0.050300
     10 C           -2.6980    -2.0610     0.0340 c3         1 8M8      -0.036800
     11 S           -0.5890     1.4310     0.0300 ss         1 8M8       0.318000
     12 C3           0.4600     0.0270    -0.0020 cc         1 8M8      -0.245500
     13 C2          -0.2530    -1.1670    -0.0010 cd         1 8M8      -0.057300
     14 H2           4.9180    -0.7880    -0.0910 h5         1 8M8       0.068100
     15 H3           0.9530    -2.7130    -0.9260 hc         1 8M8       0.054033
     16 H4           0.9850    -2.7300     0.8490 hc         1 8M8       0.054033
     17 H5          -0.4080    -3.3550    -0.0200 hc         1 8M8       0.054033
     18 H6          -2.5980    -2.6870    -0.8610 hc         1 8M8       0.051033
     19 H7          -2.5660    -2.7040     0.9120 hc         1 8M8       0.051033
     20 H8          -3.7300    -1.6950     0.0570 hc         1 8M8       0.051033
     21 H1           4.5430     1.7620    -0.0590 hn         1 8M8       0.383000
     22 C8           0.3470    -2.5620    -0.0260 c3         1 8M8      -0.037800
@<TRIPOS>BOND
     1     1     2 1   
     2     1     9 2   
     3     1    11 1   
     4     2     8 3   
     5     3     4 1   
     6     3     7 2   
     7     3    12 1   
     8     4     5 2   
     9     5     6 1   
    10     5    14 1   
    11     6     7 1   
    12     6    21 1   
    13     9    10 1   
    14     9    13 1   
    15    10    18 1   
    16    10    19 1   
    17    10    20 1   
    18    11    12 1   
    19    12    13 2   
    20    13    22 1   
    21    15    22 1   
    22    16    22 1   
    23    17    22 1   
@<TRIPOS>SUBSTRUCTURE
     1 8M8         1 TEMP              0 ****  ****    0 ROOT
