@<TRIPOS>MOLECULE
8M8
   22    23     1     0     0
SMALL
abcg2


@<TRIPOS>ATOM
      1 C4          -1.9240     0.3850     0.0130 cc         1 8M8      -0.172000
      2 C5          -3.1970     0.9870     0.0260 cg         1 8M8       0.352000
      3 C6           1.9230     0.1320     0.0130 cc         1 8M8       0.611500
      4 N1           2.8540    -0.8470    -0.0410 nc         1 8M8      -0.685000
      5 C7           3.9860    -0.1820    -0.0100 cd         1 8M8       0.414400
      6 N2           3.7370     1.1240     0.0580 na         1 8M8      -0.181700
      7 N3           2.4290     1.3480     0.0740 nd         1 8M8      -0.542800
      8 N           -4.2400     1.4820     0.0360 n1         1 8M8      -0.452000
      9 C1          -1.6580    -0.9600    -0.0130 cd         1 8M8      -0.050300
     10 C           -2.6880    -2.0350    -0.0310 c3         1 8M8      -0.036800
     11 S           -0.4970     1.3480     0.0330 ss         1 8M8       0.318000
     12 C3           0.4840    -0.0680     0.0060 cc         1 8M8      -0.245500
     13 C2          -0.2560    -1.2240    -0.0170 cd         1 8M8      -0.057300
     14 H2           4.9800    -0.5990    -0.0350 h5         1 8M8       0.068100
     15 H3          -0.0870    -3.1470    -0.9330 hc         1 8M8       0.054033
     16 H4           1.3480    -2.6620    -0.0320 hc         1 8M8       0.054033
     17 H5          -0.1060    -3.1840     0.8210 hc         1 8M8       0.054033
     18 H6          -2.5760    -2.6630    -0.9160 hc         1 8M8       0.051033
     19 H7          -2.5830    -2.6850     0.8390 hc         1 8M8       0.051033
     20 H8          -3.7000    -1.6350    -0.0290 hc         1 8M8       0.051033
     21 H1           4.3950     1.8880     0.0980 hn         1 8M8       0.383000
     22 C8           0.2640    -2.6250    -0.0410 c3         1 8M8      -0.037800
@<TRIPOS>BOND
     1     1     2 1   
     2     1     9 2   
     3     1    11 1   
     4     2     8 3   
     5     3     4 1   
     6     3     7 2   
     7     3    12 1   
     8     4     5 2   
     9     5     6 1   
    10     5    14 1   
    11     6     7 1   
    12     6    21 1   
    13     9    10 1   
    14     9    13 1   
    15    10    18 1   
    16    10    19 1   
    17    10    20 1   
    18    11    12 1   
    19    12    13 2   
    20    13    22 1   
    21    15    22 1   
    22    16    22 1   
    23    17    22 1   
@<TRIPOS>SUBSTRUCTURE
     1 8M8         1 TEMP              0 ****  ****    0 ROOT
