@<TRIPOS>MOLECULE
8M9
   37    39     1     0     0
SMALL
bcc


@<TRIPOS>ATOM
      1 C10          0.5900    -0.7570     1.8710 c3         1 8M9       0.025000
      2 C13          3.3410     0.6440    -0.3260 ca         1 8M9       0.124100
      3 C15          2.7720    -1.5770    -0.9040 ca         1 8M9       0.405200
      4 N01         -1.3760     1.0610     0.4900 nb         1 8M9      -0.805000
      5 C02         -2.3740     1.6240    -0.1800 ca         1 8M9       0.956900
      6 N03         -3.4690     0.9820    -0.6750 nb         1 8M9      -0.794000
      7 C04         -3.5590    -0.2980    -0.4890 ca         1 8M9       0.659300
      8 C05         -2.5900    -1.0260     0.1900 ca         1 8M9      -0.515500
      9 C06         -1.5200    -0.2460     0.6530 ca         1 8M9       0.513800
     10 C07         -2.2810    -2.3440     0.6090 cc         1 8M9       0.410800
     11 N08         -1.1480    -2.3570     1.2550 nd         1 8M9      -0.499100
     12 N09         -0.6910    -1.0860     1.2920 na         1 8M9       0.006200
     13 C11          1.6510    -0.5780     0.8110 ca         1 8M9       0.382600
     14 C12          2.3560     0.6190     0.6660 ca         1 8M9      -0.175600
     15 C14          3.5660    -0.4630    -1.1420 ca         1 8M9      -0.194600
     16 N16          1.8560    -1.6430     0.0470 nb         1 8M9      -0.649000
     17 C19          5.2040     1.8990     0.3230 c3         1 8M9       0.127700
     18 CL1         -4.9470    -1.1050    -1.1180 cl         1 8M9      -0.153000
     19 N22         -2.3210     2.9390    -0.4190 nv         1 8M9      -0.954500
     20 H1           0.4740     0.1280     2.4940 h1         1 8M9       0.080200
     21 H2           0.8600    -1.5810     2.5310 h1         1 8M9       0.080200
     22 H3           2.9000    -2.4640    -1.5160 h4         1 8M9       0.022100
     23 H4           0.9860     2.0360     1.5070 hc         1 8M9       0.053033
     24 H5           2.3760     1.7010     2.5360 hc         1 8M9       0.053033
     25 H6           2.5540     2.7170     1.1130 hc         1 8M9       0.053033
     26 H7           4.4490     0.3820    -2.9140 hc         1 8M9       0.047367
     27 H8           5.6090    -0.3570    -1.8240 hc         1 8M9       0.047367
     28 H9           4.5600    -1.3730    -2.8040 hc         1 8M9       0.047367
     29 H10         -2.8460    -3.2510     0.4600 h4         1 8M9       0.058800
     30 H11          4.9050     1.9560     1.3730 h1         1 8M9       0.037700
     31 H12          5.9000     1.0650     0.2040 h1         1 8M9       0.037700
     32 H13          5.7080     2.8230     0.0500 h1         1 8M9       0.037700
     33 H14         -1.5900     3.4950    -0.0090 hn         1 8M9       0.451800
     34 H15         -3.1090     3.4110    -0.8240 hn         1 8M9       0.451800
     35 O18          4.0770     1.7650    -0.5370 os         1 8M9      -0.339900
     36 C17          2.0570     1.8310     1.5010 c3         1 8M9      -0.051800
     37 C20          4.5980    -0.4500    -2.2260 c3         1 8M9      -0.037800
@<TRIPOS>BOND
     1     1    12 1   
     2     1    13 1   
     3     1    20 1   
     4     1    21 1   
     5     2    14 ar  
     6     2    15 ar  
     7     2    35 1   
     8     3    15 ar  
     9     3    16 ar  
    10     3    22 1   
    11     4     5 ar  
    12     4     9 ar  
    13     5     6 ar  
    14     5    19 1   
    15     6     7 ar  
    16     7     8 ar  
    17     7    18 1   
    18     8     9 ar  
    19     8    10 1   
    20     9    12 1   
    21    10    11 2   
    22    10    29 1   
    23    11    12 1   
    24    13    14 ar  
    25    13    16 ar  
    26    14    36 1   
    27    15    37 1   
    28    17    30 1   
    29    17    31 1   
    30    17    32 1   
    31    17    35 1   
    32    19    33 1   
    33    19    34 1   
    34    23    36 1   
    35    24    36 1   
    36    25    36 1   
    37    26    37 1   
    38    27    37 1   
    39    28    37 1   
@<TRIPOS>SUBSTRUCTURE
     1 8M9         1 TEMP              0 ****  ****    0 ROOT
