@<TRIPOS>MOLECULE
8M9
   37    39     1     0     0
SMALL
No Charge or Current Charge


@<TRIPOS>ATOM
      1 C10          0.6540    -1.1980     1.8780 c3         1 8M9       0.054300
      2 C13          3.2070     0.7390    -0.2720 ca         1 8M9       0.124100
      3 C15          2.7850    -1.4770    -1.1220 ca         1 8M9       0.339900
      4 N01         -0.9820     0.7720     0.0070 nb         1 8M9      -0.279000
      5 C02         -1.9320     1.3890    -0.7210 ca         1 8M9       0.430900
      6 N03         -3.2110     1.0070    -0.9090 nb         1 8M9      -0.268000
      7 C04         -3.5780    -0.1340    -0.2920 ca         1 8M9       0.331000
      8 C05         -2.6470    -0.8310     0.4790 ca         1 8M9      -0.384900
      9 C06         -1.3740    -0.3660     0.6100 ca         1 8M9       0.185500
     10 C07         -2.7460    -2.0440     1.2400 cc         1 8M9       0.410800
     11 N08         -1.5830    -2.3380     1.8380 nd         1 8M9      -0.499100
     12 N09         -0.7510    -1.2960     1.4290 na         1 8M9      -0.023100
     13 C11          1.6540    -0.7900     0.7920 ca         1 8M9       0.317300
     14 C12          2.2810     0.4840     0.7650 ca         1 8M9      -0.110300
     15 C14          3.4570    -0.2500    -1.2400 ca         1 8M9      -0.129300
     16 N16          1.9120    -1.7490    -0.1300 nb         1 8M9      -0.649000
     17 C19          5.0450     2.1490     0.4440 c3         1 8M9       0.150900
     18 Cl1         -5.2310    -0.6940    -0.4880 cl         1 8M9      -0.153000
     19 N22         -1.5580     2.5350    -1.3350 nv         1 8M9      -1.064900
     20 H1           0.6960    -0.5100     2.7280 h1         1 8M9       0.080200
     21 H2           0.9570    -2.1800     2.2630 h1         1 8M9       0.080200
     22 H3           2.9530    -2.2750    -1.8430 h4         1 8M9       0.022100
     23 H4           0.8890     1.6300     2.0090 hc         1 8M9       0.053033
     24 H5           2.4610     1.3270     2.7680 hc         1 8M9       0.053033
     25 H6           2.2880     2.5560     1.5090 hc         1 8M9       0.053033
     26 H7           4.1980     0.9130    -2.9230 hc         1 8M9       0.047367
     27 H8           5.4630     0.0690    -2.0150 hc         1 8M9       0.047367
     28 H9           4.4110    -0.8310    -3.1170 hc         1 8M9       0.047367
     29 H10         -3.5770    -2.7180     1.4000 h4         1 8M9       0.058800
     30 H11          4.8160     2.0520     1.5130 h1         1 8M9       0.037700
     31 H12          5.8180     1.4140     0.1880 h1         1 8M9       0.037700
     32 H13          5.4530     3.1530     0.2700 h1         1 8M9       0.037700
     33 H14         -0.6890     2.9730    -1.0400 hn         1 8M9       0.507000
     34 H15         -2.2820     3.1540    -1.6910 hn         1 8M9       0.507000
     35 O18          3.8670     1.9440    -0.3530 os         1 8M9      -0.363100
     36 C17          1.9650     1.5550     1.8170 c3         1 8M9      -0.051800
     37 C20          4.4350    -0.0130    -2.3870 c3         1 8M9      -0.037800
@<TRIPOS>BOND
     1     1    12 1   
     2     1    13 1   
     3     1    20 1   
     4     1    21 1   
     5     2    14 ar  
     6     2    15 ar  
     7     2    35 1   
     8     3    15 ar  
     9     3    16 ar  
    10     3    22 1   
    11     4     5 ar  
    12     4     9 ar  
    13     5     6 ar  
    14     5    19 1   
    15     6     7 ar  
    16     7     8 ar  
    17     7    18 1   
    18     8     9 ar  
    19     8    10 1   
    20     9    12 1   
    21    10    11 2   
    22    10    29 1   
    23    11    12 1   
    24    13    14 ar  
    25    13    16 ar  
    26    14    36 1   
    27    15    37 1   
    28    17    30 1   
    29    17    31 1   
    30    17    32 1   
    31    17    35 1   
    32    19    33 1   
    33    19    34 1   
    34    23    36 1   
    35    24    36 1   
    36    25    36 1   
    37    26    37 1   
    38    27    37 1   
    39    28    37 1   
@<TRIPOS>SUBSTRUCTURE
     1 8M9         1 TEMP              0 ****  ****    0 ROOT
