@<TRIPOS>MOLECULE
8MA
   58    61     1     0     0
SMALL
No Charge or Current Charge


@<TRIPOS>ATOM
      1 C10          6.7920    -0.8870    -2.0730 c6         1 8MA      -0.073900
      2 C13          5.8130     1.9060    -2.4630 c6         1 8MA      -0.070900
      3 C17         -1.2360    -0.2970    -0.8650 ca         1 8MA      -0.135000
      4 C20         -3.6590    -0.6680    -2.3040 ca         1 8MA      -0.111600
      5 C21         -2.4190    -1.0390    -2.8690 ca         1 8MA      -0.094000
      6 C22         -1.2230    -0.8440    -2.1610 ca         1 8MA      -0.133000
      7 C28         -3.3450     1.8450     2.9290 ca         1 8MA      -0.148500
      8 C01          2.4170    -0.4820     2.6590 ca         1 8MA      -0.113000
      9 C02          3.7210    -0.0860     2.9960 ca         1 8MA      -0.086000
     10 C03          4.4460     0.6730     2.0660 ca         1 8MA      -0.155000
     11 C04          3.8480     1.0090     0.8380 ca         1 8MA       0.354300
     12 N05          2.5900     0.6310     0.5140 nb         1 8MA      -0.681000
     13 C06          1.8710    -0.1120     1.4090 ca         1 8MA       0.300500
     14 C07          4.5970     1.8280    -0.2040 c3         1 8MA      -0.121700
     15 C08          5.1790     0.9870    -1.3810 c6         1 8MA      -0.057700
     16 C09          6.2140    -0.0670    -0.8930 c6         1 8MA      -0.070900
     17 C11          7.4160     0.0370    -3.1470 c6         1 8MA      -0.073400
     18 C12          6.3900     1.0840    -3.6430 c6         1 8MA      -0.073900
     19 C14          0.4470    -0.5460     1.0470 c          1 8MA       0.493600
     20 O15         -0.2530    -1.2250     1.7970 o          1 8MA      -0.579100
     21 N16          0.0180    -0.1340    -0.2120 ns         1 8MA      -0.136000
     22 C18         -2.4700     0.0880    -0.2830 ca         1 8MA       0.276000
     23 C19         -3.6620    -0.0940    -1.0110 ca         1 8MA      -0.110000
     24 C23         -4.9570    -0.8620    -3.0750 c          1 8MA       0.712600
     25 O24         -4.9040    -1.3360    -4.2020 o          1 8MA      -0.714000
     26 O25         -6.0090    -0.5380    -2.5420 o          1 8MA      -0.714000
     27 N26         -2.5000     0.7340     0.9590 nu         1 8MA      -0.978000
     28 C27         -3.4440     0.8060     1.9850 ca         1 8MA       0.337000
     29 C29         -4.2700     1.9400     3.9860 ca         1 8MA      -0.115500
     30 C30         -5.2920     0.9850     4.1050 ca         1 8MA       0.100000
     31 C31         -5.3900    -0.0660     3.1800 ca         1 8MA      -0.115500
     32 C32         -4.4630    -0.1570     2.1240 ca         1 8MA      -0.148500
     33 F33         -6.1790     1.0720     5.1200 f          1 8MA      -0.200000
     34 H102         7.5500    -1.5900    -1.7020 hc         1 8MA       0.040450
     35 H101         5.9970    -1.4960    -2.5250 hc         1 8MA       0.040450
     36 H132         5.0620     2.6120    -2.8440 hc         1 8MA       0.036200
     37 H131         6.6120     2.5140    -2.0160 hc         1 8MA       0.036200
     38 H211        -2.3770    -1.4740    -3.8660 ha         1 8MA       0.134000
     39 H221        -0.2800    -1.1330    -2.6190 ha         1 8MA       0.092000
     40 H011         1.8310    -1.0720     3.3590 ha         1 8MA       0.150000
     41 H021         4.1590    -0.3630     3.9530 ha         1 8MA       0.117000
     42 H031         5.4590     0.9950     2.2890 ha         1 8MA       0.117000
     43 H072         3.9190     2.5920    -0.6040 hc         1 8MA       0.050700
     44 H071         5.4050     2.3870     0.2820 hc         1 8MA       0.050700
     45 H081         4.3290     0.4570    -1.8360 hc         1 8MA       0.068700
     46 H091         5.7460    -0.7560    -0.1750 hc         1 8MA       0.036200
     47 H092         7.0320     0.4330    -0.3560 hc         1 8MA       0.036200
     48 H111         8.2950     0.5480    -2.7310 hc         1 8MA       0.033700
     49 H112         7.7750    -0.5640    -3.9930 hc         1 8MA       0.033700
     50 H121         5.5720     0.5790    -4.1760 hc         1 8MA       0.040450
     51 H122         6.8660     1.7580    -4.3690 hc         1 8MA       0.040450
     52 H161         0.7220     0.3570    -0.7520 hn         1 8MA       0.169000
     53 H191        -4.6000     0.2420    -0.5800 ha         1 8MA       0.144000
     54 H261        -1.6170     1.1770     1.2000 hn         1 8MA       0.479000
     55 H291        -4.1950     2.7480     4.7090 ha         1 8MA       0.118000
     56 H311        -6.1750    -0.8110     3.2850 ha         1 8MA       0.118000
     57 H321        -4.5300    -0.9870     1.4280 ha         1 8MA       0.125000
     58 H281        -2.5560     2.5860     2.8380 ha         1 8MA       0.125000
@<TRIPOS>BOND
     1     1    16 1   
     2     1    17 1   
     3     1    34 1   
     4     1    35 1   
     5     2    15 1   
     6     2    18 1   
     7     2    36 1   
     8     2    37 1   
     9     3     6 ar  
    10     3    21 1   
    11     3    22 ar  
    12     4     5 ar  
    13     4    23 ar  
    14     4    24 1   
    15     5     6 ar  
    16     5    38 1   
    17     6    39 1   
    18     7    28 ar  
    19     7    29 ar  
    20     7    58 1   
    21     8     9 ar  
    22     8    13 ar  
    23     8    40 1   
    24     9    10 ar  
    25     9    41 1   
    26    10    11 ar  
    27    10    42 1   
    28    11    12 ar  
    29    11    14 1   
    30    12    13 ar  
    31    13    19 1   
    32    14    15 1   
    33    14    43 1   
    34    14    44 1   
    35    15    16 1   
    36    15    45 1   
    37    16    46 1   
    38    16    47 1   
    39    17    18 1   
    40    17    48 1   
    41    17    49 1   
    42    18    50 1   
    43    18    51 1   
    44    19    20 2   
    45    19    21 1   
    46    21    52 1   
    47    22    23 ar  
    48    22    27 1   
    49    23    53 1   
    50    24    25 1   
    51    24    26 1   
    52    27    28 1   
    53    27    54 1   
    54    28    32 ar  
    55    29    30 ar  
    56    29    55 1   
    57    30    31 ar  
    58    30    33 1   
    59    31    32 ar  
    60    31    56 1   
    61    32    57 1   
@<TRIPOS>SUBSTRUCTURE
     1 8MA         1 TEMP              0 ****  ****    0 ROOT
