@<TRIPOS>MOLECULE
8MA
   58    61     1     0     0
SMALL
bcc


@<TRIPOS>ATOM
      1 C10          5.9900    -1.0240    -2.2580 c6         1 8MA      -0.073900
      2 C13          5.7340     1.8980    -2.2400 c6         1 8MA      -0.070900
      3 C17         -0.9920    -0.0840    -0.9040 ca         1 8MA      -0.042400
      4 C20         -3.3070    -0.7580    -2.3180 ca         1 8MA      -0.111600
      5 C21         -2.0530    -1.1090    -2.8130 ca         1 8MA      -0.112000
      6 C22         -0.9100    -0.7710    -2.1090 ca         1 8MA      -0.151000
      7 C28         -3.2730     1.9610     2.7460 ca         1 8MA      -0.166500
      8 C01          2.2730    -0.3450     2.7560 ca         1 8MA      -0.196300
      9 C02          3.5580    -0.0110     3.1540 ca         1 8MA      -0.104000
     10 C03          4.3660     0.7080     2.2900 ca         1 8MA      -0.238300
     11 C04          3.8670     1.0870     1.0440 ca         1 8MA       0.419600
     12 N05          2.6310     0.7700     0.6770 nb         1 8MA      -0.681000
     13 C06          1.8600     0.0730     1.5010 ca         1 8MA       0.365800
     14 C07          4.7010     1.8390     0.0500 c3         1 8MA      -0.121700
     15 C08          4.9620     1.0450    -1.2350 c6         1 8MA      -0.057700
     16 C09          5.7100    -0.2610    -0.9670 c6         1 8MA      -0.070900
     17 C11          6.7550    -0.1650    -3.2590 c6         1 8MA      -0.073400
     18 C12          6.0170     1.1410    -3.5340 c6         1 8MA      -0.073900
     19 C14          0.4850    -0.2820     1.0120 c          1 8MA       0.560600
     20 O15         -0.2710    -0.9740     1.6690 o          1 8MA      -0.579100
     21 N16          0.1880     0.2310    -0.2010 ns         1 8MA      -0.462100
     22 C18         -2.2430     0.3110    -0.4100 ca         1 8MA       0.137600
     23 C19         -3.3840    -0.0420    -1.1310 ca         1 8MA      -0.128000
     24 C23         -4.5770    -1.1250    -3.0790 c          1 8MA       0.923200
     25 O24         -4.4220    -1.7390    -4.1510 o          1 8MA      -0.819300
     26 O25         -5.6570    -0.7780    -2.5650 o          1 8MA      -0.819300
     27 N26         -2.3190     1.1010     0.7280 nu         1 8MA      -0.646000
     28 C27         -3.1970     0.9450     1.7870 ca         1 8MA       0.198600
     29 C29         -4.1200     1.8560     3.8360 ca         1 8MA      -0.133500
     30 C30         -4.9150     0.7340     3.9630 ca         1 8MA       0.064900
     31 C31         -4.8640    -0.2880     3.0360 ca         1 8MA      -0.133500
     32 C32         -3.9990    -0.1860     1.9560 ca         1 8MA      -0.166500
     33 F33         -5.7540     0.6330     5.0130 f          1 8MA      -0.164900
     34 H102         6.5450    -1.9400    -2.0390 hc         1 8MA       0.040450
     35 H101         5.0400    -1.3360    -2.7040 hc         1 8MA       0.040450
     36 H132         5.1790     2.8170    -2.4530 hc         1 8MA       0.036200
     37 H131         6.6840     2.2080    -1.7870 hc         1 8MA       0.036200
     38 H211        -1.9720    -1.6530    -3.7430 ha         1 8MA       0.152000
     39 H221         0.0660    -1.0570    -2.4810 ha         1 8MA       0.110000
     40 H011         1.6150    -0.9140     3.3970 ha         1 8MA       0.168000
     41 H021         3.9270    -0.3150     4.1250 ha         1 8MA       0.135000
     42 H031         5.3760     0.9760     2.5700 ha         1 8MA       0.135000
     43 H072         4.1880     2.7700    -0.2090 hc         1 8MA       0.050700
     44 H071         5.6540     2.1200     0.5070 hc         1 8MA       0.050700
     45 H081         3.9880     0.7950    -1.6750 hc         1 8MA       0.068700
     46 H091         5.1420    -0.8960    -0.2810 hc         1 8MA       0.036200
     47 H092         6.6590    -0.0330    -0.4650 hc         1 8MA       0.036200
     48 H111         7.7500     0.0600    -2.8570 hc         1 8MA       0.033700
     49 H112         6.9130    -0.7150    -4.1900 hc         1 8MA       0.033700
     50 H121         5.0710     0.9230    -4.0400 hc         1 8MA       0.040450
     51 H122         6.5970     1.7700    -4.2150 hc         1 8MA       0.040450
     52 H161         0.9450     0.6950    -0.6850 hn         1 8MA       0.335500
     53 H191        -4.3570     0.2700    -0.7750 ha         1 8MA       0.162000
     54 H261        -1.5120     1.6730     0.9170 hn         1 8MA       0.423800
     55 H291        -4.1650     2.6490     4.5720 ha         1 8MA       0.136000
     56 H311        -5.4810    -1.1690     3.1560 ha         1 8MA       0.136000
     57 H321        -3.9480    -1.0080     1.2560 ha         1 8MA       0.143000
     58 H281        -2.6580     2.8460     2.6390 ha         1 8MA       0.143000
@<TRIPOS>BOND
     1     1    16 1   
     2     1    17 1   
     3     1    34 1   
     4     1    35 1   
     5     2    15 1   
     6     2    18 1   
     7     2    36 1   
     8     2    37 1   
     9     3     6 ar  
    10     3    21 1   
    11     3    22 ar  
    12     4     5 ar  
    13     4    23 ar  
    14     4    24 1   
    15     5     6 ar  
    16     5    38 1   
    17     6    39 1   
    18     7    28 ar  
    19     7    29 ar  
    20     7    58 1   
    21     8     9 ar  
    22     8    13 ar  
    23     8    40 1   
    24     9    10 ar  
    25     9    41 1   
    26    10    11 ar  
    27    10    42 1   
    28    11    12 ar  
    29    11    14 1   
    30    12    13 ar  
    31    13    19 1   
    32    14    15 1   
    33    14    43 1   
    34    14    44 1   
    35    15    16 1   
    36    15    45 1   
    37    16    46 1   
    38    16    47 1   
    39    17    18 1   
    40    17    48 1   
    41    17    49 1   
    42    18    50 1   
    43    18    51 1   
    44    19    20 2   
    45    19    21 1   
    46    21    52 1   
    47    22    23 ar  
    48    22    27 1   
    49    23    53 1   
    50    24    25 1   
    51    24    26 1   
    52    27    28 1   
    53    27    54 1   
    54    28    32 ar  
    55    29    30 ar  
    56    29    55 1   
    57    30    31 ar  
    58    30    33 1   
    59    31    32 ar  
    60    31    56 1   
    61    32    57 1   
@<TRIPOS>SUBSTRUCTURE
     1 8MA         1 TEMP              0 ****  ****    0 ROOT
