@<TRIPOS>MOLECULE
8MB
   21    21     1     0     0
SMALL
No Charge or Current Charge


@<TRIPOS>ATOM
      1 C4          -0.4740    -0.2560     0.0250 ca         1 8MB       0.002200
      2 C5          -0.9860     1.0580     0.0290 ca         1 8MB      -0.122000
      3 C6          -2.3740     1.2830     0.0270 ca         1 8MB      -0.112000
      4 C7           0.9930    -0.5290     0.0260 ce         1 8MB      -0.240200
      5 C8           2.0410     0.3550     0.0340 cf         1 8MB      -0.213200
      6 C9           3.4890    -0.0170     0.0350 c          1 8MB       0.695200
      7 O1           4.3030     0.8930     0.0430 o          1 8MB      -0.723500
      8 O            3.7980    -1.1990     0.0280 o          1 8MB      -0.723500
      9 C3          -1.3770    -1.3370     0.0180 ca         1 8MB      -0.122000
     10 C2          -2.7650    -1.1120     0.0170 ca         1 8MB      -0.112000
     11 C1          -3.2710     0.2000     0.0230 ca         1 8MB      -0.119300
     12 C           -4.7720     0.4450     0.0180 c3         1 8MB      -0.032800
     13 H1          -0.3170     1.9130     0.0320 ha         1 8MB       0.113000
     14 H2          -2.7510     2.3030     0.0280 ha         1 8MB       0.092500
     15 H3           1.2380    -1.5930     0.0200 ha         1 8MB       0.189000
     16 H4           1.8420     1.4230     0.0410 ha         1 8MB       0.142000
     17 H6          -1.0050    -2.3590     0.0140 ha         1 8MB       0.113000
     18 H7          -3.4460    -1.9600     0.0100 ha         1 8MB       0.092500
     19 H8          -5.1530     0.5140    -1.0080 hc         1 8MB       0.027367
     20 H9          -5.3120    -0.3660     0.5220 hc         1 8MB       0.027367
     21 H10         -5.0270     1.3790     0.5340 hc         1 8MB       0.027367
@<TRIPOS>BOND
     1     1     2 ar  
     2     1     4 1   
     3     1     9 ar  
     4     2     3 ar  
     5     2    13 1   
     6     3    11 ar  
     7     3    14 1   
     8     4     5 2   
     9     4    15 1   
    10     5     6 1   
    11     5    16 1   
    12     6     7 1   
    13     6     8 1   
    14     9    10 ar  
    15     9    17 1   
    16    10    11 ar  
    17    10    18 1   
    18    11    12 1   
    19    12    19 1   
    20    12    20 1   
    21    12    21 1   
@<TRIPOS>SUBSTRUCTURE
     1 8MB         1 TEMP              0 ****  ****    0 ROOT
