@<TRIPOS>MOLECULE
8MB
   21    21     1     0     0
SMALL
bcc


@<TRIPOS>ATOM
      1 C4          -0.4570    -0.2420     0.0340 ca         1 8MB       0.002200
      2 C5          -0.9850     1.0530     0.0550 ca         1 8MB      -0.140000
      3 C6          -2.3520     1.2660     0.0570 ca         1 8MB      -0.130000
      4 C7           0.9780    -0.5280     0.0290 ce         1 8MB      -0.190200
      5 C8           1.9780     0.3570     0.0300 cf         1 8MB      -0.163200
      6 C9           3.4360    -0.0380     0.0190 c          1 8MB       0.905800
      7 O1           4.2480     0.9110     0.0170 o          1 8MB      -0.828800
      8 O            3.7110    -1.2550     0.0130 o          1 8MB      -0.828800
      9 C3          -1.3610    -1.3050     0.0190 ca         1 8MB      -0.140000
     10 C2          -2.7300    -1.0890     0.0210 ca         1 8MB      -0.130000
     11 C1          -3.2530     0.2010     0.0360 ca         1 8MB      -0.119300
     12 C           -4.7340     0.4370     0.0030 c3         1 8MB      -0.032800
     13 H1          -0.3230     1.9100     0.0730 ha         1 8MB       0.131000
     14 H2          -2.7270     2.2830     0.0770 ha         1 8MB       0.110500
     15 H3           1.2420    -1.5820     0.0190 ha         1 8MB       0.139000
     16 H4           1.7720     1.4240     0.0380 ha         1 8MB       0.092000
     17 H6          -0.9860    -2.3220     0.0060 ha         1 8MB       0.131000
     18 H7          -3.4030    -1.9380     0.0100 ha         1 8MB       0.110500
     19 H8          -5.1060     0.4350    -1.0240 hc         1 8MB       0.027367
     20 H9          -5.2760    -0.3400     0.5420 hc         1 8MB       0.027367
     21 H10         -4.9990     1.3990     0.4400 hc         1 8MB       0.027367
@<TRIPOS>BOND
     1     1     2 ar  
     2     1     4 1   
     3     1     9 ar  
     4     2     3 ar  
     5     2    13 1   
     6     3    11 ar  
     7     3    14 1   
     8     4     5 2   
     9     4    15 1   
    10     5     6 1   
    11     5    16 1   
    12     6     7 1   
    13     6     8 1   
    14     9    10 ar  
    15     9    17 1   
    16    10    11 ar  
    17    10    18 1   
    18    11    12 1   
    19    12    19 1   
    20    12    20 1   
    21    12    21 1   
@<TRIPOS>SUBSTRUCTURE
     1 8MB         1 TEMP              0 ****  ****    0 ROOT
