@<TRIPOS>MOLECULE
8MC
   26    27     1     0     0
SMALL
abcg2


@<TRIPOS>ATOM
      1 C            2.6500     1.9290    -0.2430 c          1 8MC       0.728000
      2 O            2.1880     1.6310    -1.3560 o          1 8MC      -0.714000
      3 CA           2.3670     0.9450     0.9280 c3         1 8MC      -0.218200
      4 C9           1.4800    -0.1870     0.5470 cc         1 8MC       0.138600
      5 C10          1.9700    -1.4370     0.3780 cd         1 8MC      -0.396200
      6 C1           1.1400    -2.5510     0.0020 c          1 8MC       0.685300
      7 O2           1.5050    -3.6900    -0.1720 o          1 8MC      -0.541000
      8 C8           0.0650     0.0240     0.3570 ca         1 8MC      -0.148800
      9 C7          -0.5800     1.2540     0.5040 ca         1 8MC       0.016000
     10 C6          -1.9390     1.3930     0.3130 ca         1 8MC      -0.241000
     11 C5          -2.7050     0.2770    -0.0500 ca         1 8MC       0.165100
     12 O4          -4.0260     0.3100    -0.2640 os         1 8MC      -0.348100
     13 C11         -4.7140     1.5390    -0.1070 c3         1 8MC       0.154900
     14 C4          -2.0900    -0.9620    -0.2080 ca         1 8MC      -0.195000
     15 C2          -0.7270    -1.0700    -0.0040 ca         1 8MC       0.198100
     16 O3          -0.1860    -2.2990    -0.1720 os         1 8MC      -0.354200
     17 H2           3.3220     0.5570     1.2890 hc         1 8MC       0.042200
     18 H3           1.9350     1.5030     1.7640 hc         1 8MC       0.042200
     19 H4           3.0210    -1.6490     0.5220 ha         1 8MC       0.204000
     20 H5          -0.0120     2.1290     0.7860 ha         1 8MC       0.139000
     21 H6          -2.3890     2.3670     0.4430 ha         1 8MC       0.112000
     22 H7          -4.6360     1.9200     0.9140 h1         1 8MC       0.036033
     23 H8          -4.3490     2.3000    -0.8000 h1         1 8MC       0.036033
     24 H9          -5.7580     1.3340    -0.3270 h1         1 8MC       0.036033
     25 H10         -2.6730    -1.8310    -0.4850 ha         1 8MC       0.134000
     26 OXT          3.3330     2.9230     0.0590 o          1 8MC      -0.714000
@<TRIPOS>BOND
     1     1     2 1   
     2     1     3 1   
     3     1    26 1   
     4     3     4 1   
     5     3    17 1   
     6     3    18 1   
     7     4     5 2   
     8     4     8 1   
     9     5     6 1   
    10     5    19 1   
    11     6     7 2   
    12     6    16 1   
    13     8     9 ar  
    14     8    15 ar  
    15     9    10 ar  
    16     9    20 1   
    17    10    11 ar  
    18    10    21 1   
    19    11    12 1   
    20    11    14 ar  
    21    12    13 1   
    22    13    22 1   
    23    13    23 1   
    24    13    24 1   
    25    14    15 ar  
    26    14    25 1   
    27    15    16 1   
@<TRIPOS>SUBSTRUCTURE
     1 8MC         1 TEMP              0 ****  ****    0 ROOT
