@<TRIPOS>MOLECULE
8MC
   26    27     1     0     0
SMALL
No Charge or Current Charge


@<TRIPOS>ATOM
      1 C            2.8860     1.7870    -0.2810 c          1 8MC       0.728000
      2 O            3.8200     1.3850    -0.9600 o          1 8MC      -0.714000
      3 CA           2.4570     0.9400     0.9190 c3         1 8MC      -0.218200
      4 C9           1.5040    -0.1580     0.5090 cc         1 8MC       0.138600
      5 C10          1.9560    -1.4390     0.2760 cd         1 8MC      -0.396200
      6 C1           1.1090    -2.5730    -0.1080 c          1 8MC       0.685300
      7 O2           1.5680    -3.6890    -0.3020 o          1 8MC      -0.541000
      8 C8           0.0490     0.0150     0.3420 ca         1 8MC      -0.148800
      9 C7          -0.5750     1.2690     0.5350 ca         1 8MC       0.016000
     10 C6          -1.9640     1.4160     0.3740 ca         1 8MC      -0.241000
     11 C5          -2.7570     0.3100     0.0140 ca         1 8MC       0.165100
     12 O4          -4.1230     0.3960    -0.1580 os         1 8MC      -0.348100
     13 C11         -4.8410     1.6300     0.0210 c3         1 8MC       0.154900
     14 C4          -2.1480    -0.9330    -0.1830 ca         1 8MC      -0.195000
     15 C2          -0.7630    -1.0790    -0.0220 ca         1 8MC       0.198100
     16 O3          -0.2200    -2.3150    -0.2300 os         1 8MC      -0.354200
     17 H2           3.3400     0.4420     1.3370 hc         1 8MC       0.042200
     18 H3           1.9500     1.5600     1.6640 hc         1 8MC       0.042200
     19 H4           3.0040    -1.6910     0.3650 ha         1 8MC       0.204000
     20 H5           0.0030     2.1470     0.8090 ha         1 8MC       0.139000
     21 H6          -2.4030     2.3970     0.5320 ha         1 8MC       0.112000
     22 H7          -4.7230     2.0050     1.0450 h1         1 8MC       0.036033
     23 H8          -4.4830     2.3950    -0.6790 h1         1 8MC       0.036033
     24 H9          -5.9120     1.4760    -0.1630 h1         1 8MC       0.036033
     25 H10         -2.7510    -1.7910    -0.4630 ha         1 8MC       0.134000
     26 OXT          2.2080     2.7590    -0.5740 o          1 8MC      -0.714000
@<TRIPOS>BOND
     1     1     2 1   
     2     1     3 1   
     3     1    26 1   
     4     3     4 1   
     5     3    17 1   
     6     3    18 1   
     7     4     5 2   
     8     4     8 1   
     9     5     6 1   
    10     5    19 1   
    11     6     7 2   
    12     6    16 1   
    13     8     9 ar  
    14     8    15 ar  
    15     9    10 ar  
    16     9    20 1   
    17    10    11 ar  
    18    10    21 1   
    19    11    12 1   
    20    11    14 ar  
    21    12    13 1   
    22    13    22 1   
    23    13    23 1   
    24    13    24 1   
    25    14    15 ar  
    26    14    25 1   
    27    15    16 1   
@<TRIPOS>SUBSTRUCTURE
     1 8MC         1 TEMP              0 ****  ****    0 ROOT
