@<TRIPOS>MOLECULE
8MD
   24    24     1     0     0
SMALL
abcg2


@<TRIPOS>ATOM
      1 C1           1.5650    -0.5170    -0.2290 c6         1 8MD       0.129300
      2 C2           0.6430    -1.6520     0.1980 c6         1 8MD      -0.106400
      3 C3          -0.7830    -1.4170    -0.2840 c6         1 8MD      -0.067400
      4 C4          -1.3280    -0.0710     0.2060 c6         1 8MD      -0.031500
      5 C5          -0.3770     1.0610    -0.1950 c6         1 8MD      -0.070400
      6 C6           1.0420     0.8150     0.2920 c6         1 8MD       0.181300
      7 C7          -2.7000     0.1730    -0.3410 c2         1 8MD      -0.215200
      8 C8          -3.8040     0.2990     0.3850 c2         1 8MD      -0.314000
      9 O2           1.8430     1.8960    -0.1340 oh         1 8MD      -0.662000
     10 H1           1.5780    -0.4690    -1.3290 h1         1 8MD       0.040700
     11 H3           1.0200    -2.6000    -0.1960 hc         1 8MD       0.047700
     12 H4           0.6570    -1.7380     1.2900 hc         1 8MD       0.047700
     13 H5          -0.8110    -1.4390    -1.3800 hc         1 8MD       0.044700
     14 H6          -1.4310    -2.2260     0.0590 hc         1 8MD       0.044700
     15 H7          -1.3900    -0.1030     1.3010 hc         1 8MD       0.052700
     16 H8          -0.3720     1.1610    -1.2870 hc         1 8MD       0.056700
     17 H9          -0.7410     2.0090     0.2070 hc         1 8MD       0.056700
     18 H10          1.0280     0.7570     1.3940 h1         1 8MD       0.039700
     19 H11         -2.7690     0.2420    -1.4250 ha         1 8MD       0.167000
     20 H12         -3.7840     0.2380     1.4670 ha         1 8MD       0.162500
     21 H13         -4.7700     0.4660    -0.0750 ha         1 8MD       0.162500
     22 H14          2.7540     1.7030     0.1140 ho         1 8MD       0.458000
     23 O1           2.8790    -0.6720     0.2730 oh         1 8MD      -0.672000
     24 H2           3.2950    -1.4120    -0.1790 ho         1 8MD       0.447000
@<TRIPOS>BOND
     1     1     2 1   
     2     1     6 1   
     3     1    10 1   
     4     1    23 1   
     5     2     3 1   
     6     2    11 1   
     7     2    12 1   
     8     3     4 1   
     9     3    13 1   
    10     3    14 1   
    11     4     5 1   
    12     4     7 1   
    13     4    15 1   
    14     5     6 1   
    15     5    16 1   
    16     5    17 1   
    17     6     9 1   
    18     6    18 1   
    19     7     8 2   
    20     7    19 1   
    21     8    20 1   
    22     8    21 1   
    23     9    22 1   
    24    23    24 1   
@<TRIPOS>SUBSTRUCTURE
     1 8MD         1 TEMP              0 ****  ****    0 ROOT
