@<TRIPOS>MOLECULE
8MD
   24    24     1     0     0
SMALL
No Charge or Current Charge


@<TRIPOS>ATOM
      1 C1           1.6050    -0.4770    -0.2180 c6         1 8MD       0.129300
      2 C2           0.6800    -1.6520     0.1870 c6         1 8MD      -0.106400
      3 C3          -0.7670    -1.4210    -0.3200 c6         1 8MD      -0.067400
      4 C4          -1.3420    -0.0690     0.1830 c6         1 8MD      -0.031500
      5 C5          -0.4060     1.1060    -0.2100 c6         1 8MD      -0.070400
      6 C6           1.0340     0.8750     0.3140 c6         1 8MD       0.181300
      7 C7          -2.7460     0.1550    -0.3600 c2         1 8MD      -0.215200
      8 C8          -3.8300     0.2970     0.4190 c2         1 8MD      -0.314000
      9 O2           1.8910     1.9530    -0.0810 oh         1 8MD      -0.662000
     10 H1           1.6340    -0.4300    -1.3170 h1         1 8MD       0.040700
     11 H3           1.0660    -2.5950    -0.2240 hc         1 8MD       0.047700
     12 H4           0.6740    -1.7650     1.2810 hc         1 8MD       0.047700
     13 H5          -0.7780    -1.4450    -1.4190 hc         1 8MD       0.044700
     14 H6          -1.4100    -2.2460     0.0140 hc         1 8MD       0.044700
     15 H7          -1.3920    -0.1100     1.2810 hc         1 8MD       0.052700
     16 H8          -0.3900     1.2220    -1.3030 hc         1 8MD       0.056700
     17 H9          -0.8020     2.0460     0.1990 hc         1 8MD       0.056700
     18 H10          0.9940     0.8220     1.4130 h1         1 8MD       0.039700
     19 H11         -2.8400     0.1970    -1.4480 ha         1 8MD       0.167000
     20 H12         -3.7700     0.2600     1.5080 ha         1 8MD       0.162500
     21 H13         -4.8220     0.4560    -0.0090 ha         1 8MD       0.162500
     22 H14          2.7990     1.5840     0.0090 ho         1 8MD       0.458000
     23 O1           2.9320    -0.6940     0.2890 oh         1 8MD      -0.672000
     24 H2           3.2290    -1.5660    -0.0550 ho         1 8MD       0.447000
@<TRIPOS>BOND
     1     1     2 1   
     2     1     6 1   
     3     1    10 1   
     4     1    23 1   
     5     2     3 1   
     6     2    11 1   
     7     2    12 1   
     8     3     4 1   
     9     3    13 1   
    10     3    14 1   
    11     4     5 1   
    12     4     7 1   
    13     4    15 1   
    14     5     6 1   
    15     5    16 1   
    16     5    17 1   
    17     6     9 1   
    18     6    18 1   
    19     7     8 2   
    20     7    19 1   
    21     8    20 1   
    22     8    21 1   
    23     9    22 1   
    24    23    24 1   
@<TRIPOS>SUBSTRUCTURE
     1 8MD         1 TEMP              0 ****  ****    0 ROOT
