@<TRIPOS>MOLECULE
8ME
   42    44     1     0     0
SMALL
abcg2


@<TRIPOS>ATOM
      1 CAI          6.1060    -0.1480     0.6330 ca         1 8ME      -0.152000
      2 CAE          6.9760     0.9240     0.7290 ca         1 8ME      -0.067000
      3 CAD          6.5870     2.1520     0.2110 ca         1 8ME      -0.163000
      4 CAH          5.3370     2.2450    -0.3770 ca         1 8ME       0.346900
      5 NAN          4.4990     1.2180    -0.4710 nb         1 8ME      -0.691000
      6 CAT          4.8710     0.0440     0.0220 ca         1 8ME       0.336300
      7 CAX          3.9150    -1.1150    -0.1440 c3         1 8ME       0.067400
      8 CAA          4.2980    -1.9430    -1.3740 c3         1 8ME      -0.106100
      9 NAP          2.5620    -0.6170    -0.2350 ns         1 8ME      -0.498900
     10 CAR          1.4870    -1.3220     0.1450 c          1 8ME       0.598100
     11 OAB          1.5590    -2.4630     0.5820 o          1 8ME      -0.622100
     12 CAL          0.1730    -0.5750     0.0250 c3         1 8ME      -0.147400
     13 CAM         -1.0130    -1.5180    -0.0330 c3         1 8ME      -0.109700
     14 CAS         -2.3320    -0.8120    -0.0500 cc         1 8ME       0.506900
     15 NAO         -2.4190     0.4630     0.0670 nd         1 8ME      -0.639100
     16 CAV         -3.6730     1.0290     0.0600 ca         1 8ME       0.190400
     17 CAJ         -3.7830     2.4200     0.1910 ca         1 8ME      -0.107000
     18 CAF         -5.0240     3.0200     0.1900 ca         1 8ME      -0.075000
     19 CAG         -6.1890     2.2550     0.0590 ca         1 8ME      -0.134000
     20 CAK         -6.0980     0.8870    -0.0730 ca         1 8ME      -0.039000
     21 CAW         -4.8450     0.2670    -0.0720 ca         1 8ME      -0.204600
     22 CAU         -4.7290    -1.1800    -0.2100 c          1 8ME       0.578600
     23 OAC         -5.6590    -1.9560    -0.3330 o          1 8ME      -0.536000
     24 NAQ         -3.4250    -1.6200    -0.1870 ns         1 8ME      -0.432400
     25 H1           6.3740    -1.1190     1.0290 ha         1 8ME       0.128000
     26 H2           7.9410     0.8060     1.2050 ha         1 8ME       0.122000
     27 H3           7.2310     3.0180     0.2680 ha         1 8ME       0.126000
     28 H4           4.9920     3.1870    -0.7870 h4         1 8ME       0.020100
     29 H5           3.9900    -1.7530     0.7390 h1         1 8ME       0.079700
     30 H6           5.3080    -2.3420    -1.2740 hc         1 8ME       0.047033
     31 H7           3.6140    -2.7820    -1.4930 hc         1 8ME       0.047033
     32 H8           4.2610    -1.3330    -2.2770 hc         1 8ME       0.047033
     33 H9           2.4510     0.3200    -0.5950 hn         1 8ME       0.341500
     34 H10          0.0850     0.0880     0.8900 hc         1 8ME       0.077200
     35 H11          0.1900     0.0760    -0.8510 hc         1 8ME       0.077200
     36 H12         -0.9510    -2.1580    -0.9180 hc         1 8ME       0.076700
     37 H13         -1.0020    -2.1960     0.8250 hc         1 8ME       0.076700
     38 H14         -2.8810     3.0080     0.2930 ha         1 8ME       0.131000
     39 H15         -5.0980     4.0940     0.2920 ha         1 8ME       0.116000
     40 H16         -7.1560     2.7380     0.0600 ha         1 8ME       0.120000
     41 H17         -6.9910     0.2850    -0.1780 ha         1 8ME       0.135000
     42 H18         -3.2810    -2.6180    -0.2790 hn         1 8ME       0.331500
@<TRIPOS>BOND
     1     1     2 ar  
     2     1     6 ar  
     3     1    25 1   
     4     2     3 ar  
     5     2    26 1   
     6     3     4 ar  
     7     3    27 1   
     8     4     5 ar  
     9     4    28 1   
    10     5     6 ar  
    11     6     7 1   
    12     7     8 1   
    13     7     9 1   
    14     7    29 1   
    15     8    30 1   
    16     8    31 1   
    17     8    32 1   
    18     9    10 1   
    19     9    33 1   
    20    10    11 2   
    21    10    12 1   
    22    12    13 1   
    23    12    34 1   
    24    12    35 1   
    25    13    14 1   
    26    13    36 1   
    27    13    37 1   
    28    14    15 2   
    29    14    24 1   
    30    15    16 1   
    31    16    17 ar  
    32    16    21 ar  
    33    17    18 ar  
    34    17    38 1   
    35    18    19 ar  
    36    18    39 1   
    37    19    20 ar  
    38    19    40 1   
    39    20    21 ar  
    40    20    41 1   
    41    21    22 1   
    42    22    23 2   
    43    22    24 1   
    44    24    42 1   
@<TRIPOS>SUBSTRUCTURE
     1 8ME         1 TEMP              0 ****  ****    0 ROOT
