@<TRIPOS>MOLECULE
8ME
   42    44     1     0     0
SMALL
No Charge or Current Charge


@<TRIPOS>ATOM
      1 CAI          6.2110    -0.2950     0.4710 ca         1 8ME      -0.152000
      2 CAE          7.1070     0.7660     0.6790 ca         1 8ME      -0.067000
      3 CAD          6.6470     2.0730     0.4510 ca         1 8ME      -0.163000
      4 CAH          5.3220     2.2680     0.0270 ca         1 8ME       0.346900
      5 NAN          4.4560     1.2480    -0.1740 nb         1 8ME      -0.691000
      6 CAT          4.8960    -0.0200     0.0470 ca         1 8ME       0.336300
      7 CAX          3.9000    -1.1670    -0.1920 c3         1 8ME       0.067400
      8 CAA          4.0180    -1.7280    -1.6260 c3         1 8ME      -0.106100
      9 NAP          2.5100    -0.7750     0.1000 ns         1 8ME      -0.498900
     10 CAR          1.4860    -1.6370     0.4130 c          1 8ME       0.598100
     11 OAB          1.6520    -2.8440     0.5140 o          1 8ME      -0.622100
     12 CAL          0.1290    -0.9730     0.6640 c3         1 8ME      -0.147400
     13 CAM         -0.8580    -1.2290    -0.5070 c3         1 8ME      -0.109700
     14 CAS         -2.2030    -0.5790    -0.3140 cc         1 8ME       0.506900
     15 NAO         -2.4750     0.6080    -0.8540 nd         1 8ME      -0.639100
     16 CAV         -3.7660     1.0910    -0.5740 ca         1 8ME       0.190400
     17 CAJ         -4.1230     2.3400    -1.1150 ca         1 8ME      -0.107000
     18 CAF         -5.3940     2.8930    -0.8820 ca         1 8ME      -0.075000
     19 CAG         -6.3260     2.1950    -0.0990 ca         1 8ME      -0.134000
     20 CAK         -5.9860     0.9480     0.4480 ca         1 8ME      -0.039000
     21 CAW         -4.7080     0.3970     0.2110 ca         1 8ME      -0.204600
     22 CAU         -4.3240    -0.9180     0.7790 c          1 8ME       0.578600
     23 OAC         -5.0550    -1.6060     1.4740 o          1 8ME      -0.536000
     24 NAQ         -3.0690    -1.3040     0.4600 ns         1 8ME      -0.432400
     25 H1           6.5300    -1.3210     0.6350 ha         1 8ME       0.128000
     26 H2           8.1280     0.5810     1.0070 ha         1 8ME       0.122000
     27 H3           7.3020     2.9270     0.5980 ha         1 8ME       0.126000
     28 H4           4.9410     3.2720    -0.1570 h4         1 8ME       0.020100
     29 H5           4.1660    -1.9750     0.5040 h1         1 8ME       0.079700
     30 H6           5.0450    -2.0560    -1.8260 hc         1 8ME       0.047033
     31 H7           3.3540    -2.5890    -1.7660 hc         1 8ME       0.047033
     32 H8           3.7520    -0.9630    -2.3650 hc         1 8ME       0.047033
     33 H9           2.2890     0.2140     0.0610 hn         1 8ME       0.341500
     34 H10         -0.2970    -1.3930     1.5830 hc         1 8ME       0.077200
     35 H11          0.2580     0.1100     0.7790 hc         1 8ME       0.077200
     36 H12         -0.4100    -0.8560    -1.4370 hc         1 8ME       0.076700
     37 H13         -0.9860    -2.3090    -0.6500 hc         1 8ME       0.076700
     38 H14         -3.4060     2.8870    -1.7220 ha         1 8ME       0.131000
     39 H15         -5.6550     3.8590    -1.3080 ha         1 8ME       0.116000
     40 H16         -7.3110     2.6190     0.0840 ha         1 8ME       0.120000
     41 H17         -6.7140     0.4120     1.0550 ha         1 8ME       0.135000
     42 H18         -2.7710    -2.1940     0.8310 hn         1 8ME       0.331500
@<TRIPOS>BOND
     1     1     2 ar  
     2     1     6 ar  
     3     1    25 1   
     4     2     3 ar  
     5     2    26 1   
     6     3     4 ar  
     7     3    27 1   
     8     4     5 ar  
     9     4    28 1   
    10     5     6 ar  
    11     6     7 1   
    12     7     8 1   
    13     7     9 1   
    14     7    29 1   
    15     8    30 1   
    16     8    31 1   
    17     8    32 1   
    18     9    10 1   
    19     9    33 1   
    20    10    11 2   
    21    10    12 1   
    22    12    13 1   
    23    12    34 1   
    24    12    35 1   
    25    13    14 1   
    26    13    36 1   
    27    13    37 1   
    28    14    15 2   
    29    14    24 1   
    30    15    16 1   
    31    16    17 ar  
    32    16    21 ar  
    33    17    18 ar  
    34    17    38 1   
    35    18    19 ar  
    36    18    39 1   
    37    19    20 ar  
    38    19    40 1   
    39    20    21 ar  
    40    20    41 1   
    41    21    22 1   
    42    22    23 2   
    43    22    24 1   
    44    24    42 1   
@<TRIPOS>SUBSTRUCTURE
     1 8ME         1 TEMP              0 ****  ****    0 ROOT
