@<TRIPOS>MOLECULE
8MF
   31    34     1     0     0
SMALL
No Charge or Current Charge


@<TRIPOS>ATOM
      1 C10          0.4100    -0.8690     1.6780 c3         1 8MF       0.146900
      2 C13          2.8940     0.2580    -1.0720 ca         1 8MF      -0.085000
      3 C15          2.5510     2.0630     0.4910 ca         1 8MF       0.057100
      4 C01         -3.8910     0.1390    -0.3940 ca         1 8MF       0.332000
      5 N02         -3.8070     1.4840    -0.3700 nb         1 8MF      -0.266000
      6 C03         -2.6790     1.9890     0.1660 ca         1 8MF       0.430900
      7 N04         -1.6300     1.3160     0.6750 nb         1 8MF      -0.284000
      8 C05         -1.7370    -0.0270     0.6340 ca         1 8MF       0.186500
      9 C06         -2.8420    -0.6260     0.1150 ca         1 8MF      -0.385900
     10 N07         -0.9090    -1.0620     1.0430 na         1 8MF      -0.032100
     11 N08         -1.4780    -2.3210     0.8070 nc         1 8MF      -0.507100
     12 C09         -2.6580    -2.0480     0.2310 cd         1 8MF       0.413800
     13 C11          1.3830    -0.0270     0.8500 ca         1 8MF      -0.090300
     14 C12          2.0060    -0.5420    -0.3220 ca         1 8MF       0.006100
     15 C14          3.1410     1.5620    -0.6330 ca         1 8MF       0.065100
     16 C16          1.6680     1.2980     1.2620 ca         1 8MF      -0.082000
     17 O17          3.9670     2.4590    -1.2290 os         1 8MF      -0.338100
     18 C18          3.8170     3.6530    -0.3810 c5         1 8MF       0.373600
     19 O19          2.9260     3.3410     0.7490 os         1 8MF      -0.340100
     20 N21         -2.5850     3.3390     0.1950 nv         1 8MF      -1.058900
     21 Br1          1.6800    -2.3340    -0.9280 br         1 8MF      -0.074100
     22 H1           0.2480    -0.3930     2.6530 h1         1 8MF       0.085200
     23 H2           0.8550    -1.8520     1.8740 h1         1 8MF       0.085200
     24 H3           3.3770    -0.1260    -1.9670 ha         1 8MF       0.151000
     25 H4          -3.3090    -2.8620    -0.0620 h4         1 8MF       0.059800
     26 H5           1.2100     1.7250     2.1510 ha         1 8MF       0.149000
     27 H6           4.7990     3.9570     0.0000 h2         1 8MF       0.068200
     28 H7           3.3770     4.4630    -0.9730 h2         1 8MF       0.068200
     29 H8          -3.2270     3.8760    -0.3820 hn         1 8MF       0.507000
     30 H9          -1.6730     3.7540     0.3670 hn         1 8MF       0.507000
     31 Cl1         -5.3360    -0.5940    -1.0720 cl         1 8MF      -0.149000
@<TRIPOS>BOND
     1     1    10 1   
     2     1    13 1   
     3     1    22 1   
     4     1    23 1   
     5     2    14 ar  
     6     2    15 ar  
     7     2    24 1   
     8     3    15 ar  
     9     3    16 ar  
    10     3    19 1   
    11     4     5 ar  
    12     4     9 ar  
    13     4    31 1   
    14     5     6 ar  
    15     6     7 ar  
    16     6    20 1   
    17     7     8 ar  
    18     8     9 ar  
    19     8    10 1   
    20     9    12 1   
    21    10    11 1   
    22    11    12 2   
    23    12    25 1   
    24    13    14 ar  
    25    13    16 ar  
    26    14    21 1   
    27    15    17 1   
    28    16    26 1   
    29    17    18 1   
    30    18    19 1   
    31    18    27 1   
    32    18    28 1   
    33    20    29 1   
    34    20    30 1   
@<TRIPOS>SUBSTRUCTURE
     1 8MF         1 TEMP              0 ****  ****    0 ROOT
