@<TRIPOS>MOLECULE
8MF
   31    34     1     0     0
SMALL
abcg2


@<TRIPOS>ATOM
      1 C10          0.2990    -0.5920     1.6560 c3         1 8MF       0.146900
      2 C13          3.4260    -0.1720    -0.5580 ca         1 8MF      -0.085000
      3 C15          2.4400     1.9650    -0.0460 ca         1 8MF       0.057100
      4 C01         -3.8630     0.3700    -0.5360 ca         1 8MF       0.332000
      5 N02         -4.0320     1.5410    -0.0060 nb         1 8MF      -0.266000
      6 C03         -3.0900     1.9890     0.8690 ca         1 8MF       0.430900
      7 N04         -1.9960     1.3330     1.2400 nb         1 8MF      -0.284000
      8 C05         -1.8800     0.1380     0.6810 ca         1 8MF       0.186500
      9 C06         -2.7740    -0.4380    -0.2350 ca         1 8MF      -0.385900
     10 N07         -0.8980    -0.7620     0.8620 na         1 8MF      -0.032100
     11 N08         -1.0940    -1.8680     0.1110 nc         1 8MF      -0.507100
     12 C09         -2.2090    -1.7000    -0.5440 cd         1 8MF       0.413800
     13 C11          1.4290    -0.0010     0.8500 ca         1 8MF      -0.090300
     14 C12          2.4090    -0.7530     0.2140 ca         1 8MF       0.006100
     15 C14          3.4070     1.1930    -0.6710 ca         1 8MF       0.065100
     16 C16          1.4540     1.4000     0.7150 ca         1 8MF      -0.082000
     17 O17          4.2440     1.9920    -1.3650 os         1 8MF      -0.338100
     18 C18          3.8900     3.3300    -1.0300 c5         1 8MF       0.373600
     19 O19          2.6500     3.2680    -0.3350 os         1 8MF      -0.340100
     20 N21         -3.3200     3.1960     1.3980 nv         1 8MF      -1.058900
     21 BR1          2.4460    -2.6380     0.3540 br         1 8MF      -0.074100
     22 H1           0.0460     0.0790     2.4760 h1         1 8MF       0.085200
     23 H2           0.5510    -1.5530     2.0980 h1         1 8MF       0.085200
     24 H3           4.1860    -0.7670    -1.0460 ha         1 8MF       0.151000
     25 H4          -2.5830    -2.4650    -1.2060 h4         1 8MF       0.059800
     26 H5           0.6960     2.0050     1.1960 ha         1 8MF       0.149000
     27 H6           4.6580     3.7650    -0.3830 h2         1 8MF       0.068200
     28 H7           3.7760     3.9180    -1.9400 h2         1 8MF       0.068200
     29 H8          -4.0500     3.7750     1.0220 hn         1 8MF       0.507000
     30 H9          -2.6180     3.6300     1.9700 hn         1 8MF       0.507000
     31 CL1         -5.0510    -0.1850    -1.6560 cl         1 8MF      -0.149000
@<TRIPOS>BOND
     1     1    10 1   
     2     1    13 1   
     3     1    22 1   
     4     1    23 1   
     5     2    14 ar  
     6     2    15 ar  
     7     2    24 1   
     8     3    15 ar  
     9     3    16 ar  
    10     3    19 1   
    11     4     5 ar  
    12     4     9 ar  
    13     4    31 1   
    14     5     6 ar  
    15     6     7 ar  
    16     6    20 1   
    17     7     8 ar  
    18     8     9 ar  
    19     8    10 1   
    20     9    12 1   
    21    10    11 1   
    22    11    12 2   
    23    12    25 1   
    24    13    14 ar  
    25    13    16 ar  
    26    14    21 1   
    27    15    17 1   
    28    16    26 1   
    29    17    18 1   
    30    18    19 1   
    31    18    27 1   
    32    18    28 1   
    33    20    29 1   
    34    20    30 1   
@<TRIPOS>SUBSTRUCTURE
     1 8MF         1 TEMP              0 ****  ****    0 ROOT
