@<TRIPOS>MOLECULE
8MH
   70    72     1     0     0
SMALL
abcg2


@<TRIPOS>ATOM
      1 C10         14.9380   -22.9230    -1.0630 ca         1 8MH      -0.178600
      2 N12         14.5430   -22.7160    -3.4640 n          1 8MH      -0.376400
      3 C13         13.8320   -21.5290    -3.2990 c          1 8MH       0.595600
      4 C17         14.6950   -23.2530    -4.8140 c3         1 8MH       0.102000
      5 C21         16.5690   -19.1890    -6.6860 c3         1 8MH       0.071000
      6 C22         17.2780   -19.2920    -8.0380 c3         1 8MH       0.138600
      7 C24         18.2010   -17.1310    -8.3770 c3         1 8MH       0.121600
      8 C28         20.0520   -13.1410    -8.1670 c3         1 8MH      -0.081400
      9 C01         13.6440   -21.0540    -1.9340 ca         1 8MH      -0.238600
     10 C02         12.9250   -19.8990    -1.6950 ca         1 8MH       0.046000
     11 C03         12.6990   -19.4300    -0.4100 ca         1 8MH      -0.255000
     12 C04         13.1910   -20.1100     0.7020 ca         1 8MH       0.384000
     13 C05         13.9700   -21.3050     0.4890 ca         1 8MH      -0.112000
     14 C06         14.1780   -21.7570    -0.8370 ca         1 8MH       0.072000
     15 C07         14.5400   -22.0470     1.5420 ca         1 8MH      -0.048000
     16 C08         15.2810   -23.1790     1.3010 ca         1 8MH      -0.148000
     17 C09         15.4840   -23.6200    -0.0090 ca         1 8MH      -0.007000
     18 C11         15.1540   -23.4130    -2.4350 c          1 8MH       0.588600
     19 N14         12.9850   -19.6530     1.9580 nu         1 8MH      -0.729000
     20 N15         12.1500   -18.6060     2.2860 n7         1 8MH      -0.363000
     21 N16         10.7920   -18.8850     2.0620 n8         1 8MH      -0.803000
     22 C18         15.9460   -22.7520    -5.5330 c3         1 8MH      -0.175400
     23 C19         15.7300   -21.4620    -6.2980 c          1 8MH       0.603100
     24 N20         16.5680   -20.4560    -5.9910 ns         1 8MH      -0.508900
     25 O23         17.2450   -18.0900    -8.7640 os         1 8MH      -0.451000
     26 C25         18.2330   -16.0650    -9.4660 c3         1 8MH       0.156600
     27 O26         19.2340   -15.1050    -9.2390 os         1 8MH      -0.457000
     28 C27         18.8670   -14.0650    -8.3590 c3         1 8MH       0.159600
     29 C29         19.7240   -11.9720    -7.2460 c3         1 8MH      -0.074400
     30 C30         20.9190   -11.0610    -7.0030 c3         1 8MH      -0.075400
     31 C31         20.6030    -9.8830    -6.0910 c3         1 8MH      -0.074400
     32 C32         21.8080    -8.9870    -5.8440 c3         1 8MH      -0.089100
     33 O34         15.8260   -24.3990    -2.6680 o          1 8MH      -0.537000
     34 O35         13.3910   -20.9440    -4.2710 o          1 8MH      -0.517000
     35 O36         14.8680   -21.3690    -7.1600 o          1 8MH      -0.591100
     36 H1          13.8020   -23.0120    -5.3860 h1         1 8MH       0.081700
     37 H2          14.7350   -24.3350    -4.7300 h1         1 8MH       0.081700
     38 H3          17.0650   -18.4620    -6.0420 h1         1 8MH       0.059200
     39 H4          15.5430   -18.8470    -6.8310 h1         1 8MH       0.059200
     40 H5          16.7740   -20.0420    -8.6490 h1         1 8MH       0.053200
     41 H6          18.3110   -19.6330    -7.8840 h1         1 8MH       0.053200
     42 H7          19.1970   -17.5870    -8.2860 h1         1 8MH       0.027200
     43 H8          17.9570   -16.6880    -7.4030 h1         1 8MH       0.027200
     44 H9          20.8890   -13.7100    -7.7520 hc         1 8MH       0.052200
     45 H10         20.3780   -12.7610    -9.1400 hc         1 8MH       0.052200
     46 H11         12.5200   -19.3390    -2.5280 ha         1 8MH       0.137000
     47 H12         12.1340   -18.5160    -0.2940 ha         1 8MH       0.108000
     48 H13         14.4160   -21.7450     2.5730 ha         1 8MH       0.108000
     49 H14         15.7090   -23.7290     2.1280 ha         1 8MH       0.124000
     50 H15         16.0680   -24.5110    -0.1930 ha         1 8MH       0.141000
     51 H16         13.2610   -20.2060     2.7500 hn         1 8MH       0.525000
     52 H17         12.4670   -17.7620     1.8250 hn         1 8MH       0.421000
     53 H18         10.2670   -18.4700     2.8180 hn         1 8MH       0.413000
     54 H19         10.4570   -18.4780     1.1960 hn         1 8MH       0.413000
     55 H20         16.2250   -23.5020    -6.2780 hc         1 8MH       0.066200
     56 H21         16.7830   -22.6850    -4.8370 hc         1 8MH       0.066200
     57 H22         17.2760   -20.6130    -5.2920 hn         1 8MH       0.310500
     58 H23         17.2430   -15.5970    -9.5600 h1         1 8MH       0.057200
     59 H24         18.4580   -16.5450   -10.4220 h1         1 8MH       0.057200
     60 H25         18.0130   -13.5040    -8.7670 h1         1 8MH       0.020700
     61 H26         18.5490   -14.4570    -7.3830 h1         1 8MH       0.020700
     62 H27         18.9020   -11.3880    -7.6740 hc         1 8MH       0.037200
     63 H28         19.3590   -12.3520    -6.2860 hc         1 8MH       0.037200
     64 H29         21.7380   -11.6460    -6.5690 hc         1 8MH       0.039200
     65 H30         21.2910   -10.6860    -7.9630 hc         1 8MH       0.039200
     66 H31         19.7910    -9.2940    -6.5280 hc         1 8MH       0.036200
     67 H32         20.2240   -10.2580    -5.1350 hc         1 8MH       0.036200
     68 H33         21.5620    -8.1530    -5.1860 hc         1 8MH       0.031700
     69 H34         22.6240    -9.5450    -5.3800 hc         1 8MH       0.031700
     70 H35         22.1870    -8.5690    -6.7790 hc         1 8MH       0.031700
@<TRIPOS>BOND
     1     1    14 ar  
     2     1    17 ar  
     3     1    18 1   
     4     2     3 1   
     5     2     4 1   
     6     2    18 1   
     7     3     9 1   
     8     3    34 2   
     9     4    22 1   
    10     4    36 1   
    11     4    37 1   
    12     5     6 1   
    13     5    24 1   
    14     5    38 1   
    15     5    39 1   
    16     6    25 1   
    17     6    40 1   
    18     6    41 1   
    19     7    25 1   
    20     7    26 1   
    21     7    42 1   
    22     7    43 1   
    23     8    28 1   
    24     8    29 1   
    25     8    44 1   
    26     8    45 1   
    27     9    10 ar  
    28     9    14 ar  
    29    10    11 ar  
    30    10    46 1   
    31    11    12 ar  
    32    11    47 1   
    33    12    13 ar  
    34    12    19 1   
    35    13    14 ar  
    36    13    15 ar  
    37    15    16 ar  
    38    15    48 1   
    39    16    17 ar  
    40    16    49 1   
    41    17    50 1   
    42    18    33 2   
    43    19    20 1   
    44    19    51 1   
    45    20    21 1   
    46    20    52 1   
    47    21    53 1   
    48    21    54 1   
    49    22    23 1   
    50    22    55 1   
    51    22    56 1   
    52    23    24 1   
    53    23    35 2   
    54    24    57 1   
    55    26    27 1   
    56    26    58 1   
    57    26    59 1   
    58    27    28 1   
    59    28    60 1   
    60    28    61 1   
    61    29    30 1   
    62    29    62 1   
    63    29    63 1   
    64    30    31 1   
    65    30    64 1   
    66    30    65 1   
    67    31    32 1   
    68    31    66 1   
    69    31    67 1   
    70    32    68 1   
    71    32    69 1   
    72    32    70 1   
@<TRIPOS>SUBSTRUCTURE
     1 8MH         1 TEMP              0 ****  ****    0 ROOT
