@<TRIPOS>MOLECULE
8MH
   70    72     1     0     0
SMALL
No Charge or Current Charge


@<TRIPOS>ATOM
      1 C10         15.6410   -22.0470    -1.4850 ca         1 8MH      -0.178600
      2 N12         14.7620   -22.7920    -3.6880 n          1 8MH      -0.376400
      3 C13         13.9330   -21.6650    -3.7610 c          1 8MH       0.595600
      4 C17         14.7000   -23.8010    -4.7870 c3         1 8MH       0.102000
      5 C21         16.3910   -19.9400    -6.9230 c3         1 8MH       0.071000
      6 C22         16.9990   -19.9270    -8.3480 c3         1 8MH       0.138600
      7 C24         17.6710   -17.5690    -8.3650 c3         1 8MH       0.121600
      8 C28         19.2090   -13.5730    -7.2800 c3         1 8MH      -0.081400
      9 C01         14.0050   -20.6720    -2.6380 ca         1 8MH      -0.238600
     10 C02         13.2120   -19.5110    -2.6920 ca         1 8MH       0.046000
     11 C03         13.2600   -18.5700    -1.6580 ca         1 8MH      -0.255000
     12 C04         14.0940   -18.7630    -0.5410 ca         1 8MH       0.384000
     13 C05         14.9000   -19.9320    -0.4780 ca         1 8MH      -0.112000
     14 C06         14.8490   -20.8820    -1.5330 ca         1 8MH       0.072000
     15 C07         15.7540   -20.1810     0.6240 ca         1 8MH      -0.048000
     16 C08         16.5390   -21.3410     0.6680 ca         1 8MH      -0.148000
     17 C09         16.4860   -22.2700    -0.3780 ca         1 8MH      -0.007000
     18 C11         15.6010   -23.0570    -2.5970 c          1 8MH       0.588600
     19 N14         14.1430   -17.7870     0.4870 nu         1 8MH      -0.729000
     20 N15         13.2620   -16.6690     0.5680 n7         1 8MH      -0.363000
     21 N16         12.0320   -17.1710     1.1140 n8         1 8MH      -0.803000
     22 C18         15.7920   -23.6030    -5.8610 c3         1 8MH      -0.175400
     23 C19         15.5800   -22.3150    -6.6530 c          1 8MH       0.603100
     24 N20         16.4120   -21.2730    -6.3040 ns         1 8MH      -0.508900
     25 O23         16.8570   -18.6140    -8.9370 os         1 8MH      -0.451000
     26 C25         17.4580   -16.2830    -9.2020 c3         1 8MH       0.156600
     27 O26         18.3910   -15.2570    -8.7910 os         1 8MH      -0.457000
     28 C27         18.1790   -14.7010    -7.4790 c3         1 8MH       0.159600
     29 C29         19.0900   -12.8860    -5.9020 c3         1 8MH      -0.074400
     30 C30         20.1220   -11.7550    -5.6990 c3         1 8MH      -0.075400
     31 C31         20.0030   -11.0680    -4.3210 c3         1 8MH      -0.074400
     32 C32         21.0320    -9.9390    -4.1190 c3         1 8MH      -0.089100
     33 O34         16.2900   -24.0680    -2.5500 o          1 8MH      -0.537000
     34 O35         13.1720   -21.4870    -4.7030 o          1 8MH      -0.517000
     35 O36         14.7570   -22.2250    -7.5520 o          1 8MH      -0.591100
     36 H1          13.7130   -23.7840    -5.2680 h1         1 8MH       0.081700
     37 H2          14.8030   -24.8090    -4.3610 h1         1 8MH       0.081700
     38 H3          16.9520   -19.2580    -6.2720 h1         1 8MH       0.059200
     39 H4          15.3520   -19.5880    -6.9680 h1         1 8MH       0.059200
     40 H5          16.4720   -20.6650    -8.9660 h1         1 8MH       0.053200
     41 H6          18.0550   -20.2240    -8.3030 h1         1 8MH       0.053200
     42 H7          18.7330   -17.8490    -8.3950 h1         1 8MH       0.027200
     43 H8          17.3860   -17.3790    -7.3230 h1         1 8MH       0.027200
     44 H9          20.2190   -13.9870    -7.3930 hc         1 8MH       0.052200
     45 H10         19.0760   -12.8240    -8.0710 hc         1 8MH       0.052200
     46 H11         12.5540   -19.3280    -3.5410 ha         1 8MH       0.137000
     47 H12         12.6420   -17.6830    -1.7440 ha         1 8MH       0.108000
     48 H13         15.8220   -19.4920     1.4610 ha         1 8MH       0.108000
     49 H14         17.1920   -21.5220     1.5200 ha         1 8MH       0.124000
     50 H15         17.1050   -23.1630    -0.3220 ha         1 8MH       0.141000
     51 H16         14.9110   -17.8670     1.1630 hn         1 8MH       0.525000
     52 H17         13.2130   -16.0110    -0.2490 hn         1 8MH       0.421000
     53 H18         11.5850   -16.5060     1.7650 hn         1 8MH       0.413000
     54 H19         11.3400   -17.4120     0.3890 hn         1 8MH       0.413000
     55 H20         15.7430   -24.4500    -6.5540 hc         1 8MH       0.066200
     56 H21         16.7670   -23.5860    -5.3600 hc         1 8MH       0.066200
     57 H22         17.0740   -21.4490    -5.5570 hn         1 8MH       0.310500
     58 H23         16.4210   -15.9390    -9.0910 h1         1 8MH       0.057200
     59 H24         17.6190   -16.5260   -10.2600 h1         1 8MH       0.057200
     60 H25         17.1640   -14.2920    -7.3900 h1         1 8MH       0.020700
     61 H26         18.3210   -15.4600    -6.6990 h1         1 8MH       0.020700
     62 H27         18.0790   -12.4760    -5.7900 hc         1 8MH       0.037200
     63 H28         19.2200   -13.6380    -5.1130 hc         1 8MH       0.037200
     64 H29         21.1340   -12.1650    -5.8110 hc         1 8MH       0.039200
     65 H30         19.9920   -11.0030    -6.4880 hc         1 8MH       0.039200
     66 H31         18.9940   -10.6540    -4.2060 hc         1 8MH       0.036200
     67 H32         20.1350   -11.8160    -3.5290 hc         1 8MH       0.036200
     68 H33         20.9090    -9.4830    -3.1290 hc         1 8MH       0.031700
     69 H34         22.0550   -10.3280    -4.1920 hc         1 8MH       0.031700
     70 H35         20.9030    -9.1560    -4.8750 hc         1 8MH       0.031700
@<TRIPOS>BOND
     1     1    14 ar  
     2     1    17 ar  
     3     1    18 1   
     4     2     3 1   
     5     2     4 1   
     6     2    18 1   
     7     3     9 1   
     8     3    34 2   
     9     4    22 1   
    10     4    36 1   
    11     4    37 1   
    12     5     6 1   
    13     5    24 1   
    14     5    38 1   
    15     5    39 1   
    16     6    25 1   
    17     6    40 1   
    18     6    41 1   
    19     7    25 1   
    20     7    26 1   
    21     7    42 1   
    22     7    43 1   
    23     8    28 1   
    24     8    29 1   
    25     8    44 1   
    26     8    45 1   
    27     9    10 ar  
    28     9    14 ar  
    29    10    11 ar  
    30    10    46 1   
    31    11    12 ar  
    32    11    47 1   
    33    12    13 ar  
    34    12    19 1   
    35    13    14 ar  
    36    13    15 ar  
    37    15    16 ar  
    38    15    48 1   
    39    16    17 ar  
    40    16    49 1   
    41    17    50 1   
    42    18    33 2   
    43    19    20 1   
    44    19    51 1   
    45    20    21 1   
    46    20    52 1   
    47    21    53 1   
    48    21    54 1   
    49    22    23 1   
    50    22    55 1   
    51    22    56 1   
    52    23    24 1   
    53    23    35 2   
    54    24    57 1   
    55    26    27 1   
    56    26    58 1   
    57    26    59 1   
    58    27    28 1   
    59    28    60 1   
    60    28    61 1   
    61    29    30 1   
    62    29    62 1   
    63    29    63 1   
    64    30    31 1   
    65    30    64 1   
    66    30    65 1   
    67    31    32 1   
    68    31    66 1   
    69    31    67 1   
    70    32    68 1   
    71    32    69 1   
    72    32    70 1   
@<TRIPOS>SUBSTRUCTURE
     1 8MH         1 TEMP              0 ****  ****    0 ROOT
