@<TRIPOS>MOLECULE
8MI
   69    70     1     0     0
SMALL
No Charge or Current Charge


@<TRIPOS>ATOM
      1 C1         -20.5610    92.8410    80.0000 c3         1 8MI      -0.055100
      2 C2         -20.8280    92.9480    81.5220 c3         1 8MI       0.013500
      3 C3         -21.3380    94.3800    81.9620 c          1 8MI       0.690000
      4 O4         -20.7890    95.3760    81.5120 o          1 8MI      -0.730500
      5 O5         -22.2560    94.4340    82.7700 o          1 8MI      -0.730500
      6 N6         -19.6780    92.3930    82.3320 n7         1 8MI      -0.840400
      7 C7         -18.4620    93.2620    82.5090 c3         1 8MI       0.127500
      8 C8         -17.5980    92.6650    83.6510 c3         1 8MI      -0.086400
      9 C9         -16.3930    93.5470    84.0570 c3         1 8MI      -0.038100
     10 C10        -15.6180    92.9510    85.2230 ca         1 8MI      -0.068300
     11 C11        -15.9350    93.3110    86.5470 ca         1 8MI      -0.105000
     12 C12        -15.2210    92.7560    87.6230 ca         1 8MI      -0.114000
     13 C13        -14.1860    91.8370    87.3810 ca         1 8MI      -0.119000
     14 C14        -13.8660    91.4720    86.0630 ca         1 8MI      -0.114000
     15 C15        -14.5810    92.0270    84.9860 ca         1 8MI      -0.105000
     16 C16        -17.6000    93.4990    81.2140 c          1 8MI       0.604100
     17 O17        -16.9240    92.6250    80.6810 o          1 8MI      -0.591100
     18 N18        -17.6070    94.7930    80.7280 ns         1 8MI      -0.518900
     19 C19        -16.7800    95.2600    79.5910 c3         1 8MI       0.049700
     20 C20        -17.4440    96.4690    78.8800 c3         1 8MI      -0.084400
     21 C21        -18.8230    96.1530    78.2520 c3         1 8MI      -0.098400
     22 C22        -19.4100    97.3430    77.4720 c3         1 8MI       0.058600
     23 N23        -20.7150    96.9730    76.8960 nu         1 8MI      -0.885000
     24 C24        -21.5280    97.6980    76.1580 cz         1 8MI       0.934600
     25 N25        -22.6460    97.1780    75.7490 nv         1 8MI      -0.616300
     26 N26        -21.2190    98.9190    75.8360 nv         1 8MI      -0.616300
     27 C27        -15.3290    95.5940    80.0580 c          1 8MI       0.598100
     28 O28        -15.0370    95.7630    81.2390 o          1 8MI      -0.564100
     29 N29        -14.4150    95.6800    79.0130 ns         1 8MI      -0.139000
     30 C30        -13.0180    95.9430    78.9770 ca         1 8MI      -0.018000
     31 C31        -12.4090    96.0500    77.7110 ca         1 8MI      -0.149500
     32 C32        -11.0320    96.3060    77.5940 ca         1 8MI      -0.083500
     33 C33        -10.2470    96.4570    78.7480 ca         1 8MI      -0.137000
     34 C34        -10.8400    96.3490    80.0160 ca         1 8MI      -0.083500
     35 C35        -12.2180    96.0930    80.1330 ca         1 8MI      -0.149500
     36 H36        -21.4750    93.0740    79.4420 hc         1 8MI       0.009700
     37 H37        -19.7840    93.5350    79.6650 hc         1 8MI       0.009700
     38 H38        -20.2530    91.8240    79.7300 hc         1 8MI       0.009700
     39 H39        -21.6870    92.2860    81.6960 h1         1 8MI       0.055700
     40 H40        -20.0450    92.2020    83.2740 hn         1 8MI       0.437000
     41 H41        -18.7790    94.2530    82.8590 h1         1 8MI       0.047700
     42 H42        -18.2280    92.5150    84.5370 hc         1 8MI       0.069200
     43 H43        -17.2340    91.6750    83.3520 hc         1 8MI       0.069200
     44 H44        -15.7240    93.6760    83.1980 hc         1 8MI       0.047200
     45 H45        -16.7520    94.5510    84.3170 hc         1 8MI       0.047200
     46 H46        -16.7360    94.0200    86.7430 ha         1 8MI       0.115500
     47 H47        -15.4700    93.0370    88.6440 ha         1 8MI       0.106000
     48 H48        -13.6330    91.4070    88.2140 ha         1 8MI       0.104000
     49 H49        -13.0660    90.7600    85.8740 ha         1 8MI       0.106000
     50 H50        -14.3290    91.7390    83.9680 ha         1 8MI       0.115500
     51 H51        -18.2230    95.4510    81.1920 hn         1 8MI       0.320500
     52 H52        -16.6980    94.4430    78.8630 h1         1 8MI       0.066700
     53 H53        -16.7770    96.8260    78.0850 hc         1 8MI       0.058200
     54 H54        -17.5500    97.2970    79.5930 hc         1 8MI       0.058200
     55 H55        -19.5260    95.8660    79.0420 hc         1 8MI       0.074200
     56 H56        -18.7240    95.2920    77.5780 hc         1 8MI       0.074200
     57 H57        -18.7100    97.6310    76.6740 h1         1 8MI       0.063200
     58 H58        -19.5220    98.1990    78.1530 h1         1 8MI       0.063200
     59 H59        -21.0450    96.0400    77.1160 hn         1 8MI       0.385000
     60 H61        -23.2960    97.6950    75.1800 hn         1 8MI       0.377500
     61 H62        -20.3570    99.3290    76.1500 hn         1 8MI       0.377500
     62 H63        -21.8230    99.4960    75.2750 hn         1 8MI       0.377500
     63 H64        -14.8200    95.5240    78.0990 hn         1 8MI       0.147000
     64 H65        -13.0060    95.9350    76.8090 ha         1 8MI       0.127000
     65 H66        -10.5750    96.3880    76.6110 ha         1 8MI       0.112500
     66 H67         -9.1810    96.6550    78.6600 ha         1 8MI       0.115000
     67 H68        -10.2310    96.4630    80.9110 ha         1 8MI       0.112500
     68 H69        -12.6390    96.0110    81.1290 ha         1 8MI       0.127000
     69 H60        -22.9020    96.2320    75.9760 hn         1 8MI       0.377500
@<TRIPOS>BOND
     1     1     2 1   
     2     1    36 1   
     3     1    37 1   
     4     1    38 1   
     5     2     3 1   
     6     2     6 1   
     7     2    39 1   
     8     3     4 1   
     9     3     5 1   
    10     6     7 1   
    11     6    40 1   
    12     7     8 1   
    13     7    16 1   
    14     7    41 1   
    15     8     9 1   
    16     8    42 1   
    17     8    43 1   
    18     9    10 1   
    19     9    44 1   
    20     9    45 1   
    21    10    11 ar  
    22    10    15 ar  
    23    11    12 ar  
    24    11    46 1   
    25    12    13 ar  
    26    12    47 1   
    27    13    14 ar  
    28    13    48 1   
    29    14    15 ar  
    30    14    49 1   
    31    15    50 1   
    32    16    17 2   
    33    16    18 1   
    34    18    19 1   
    35    18    51 1   
    36    19    20 1   
    37    19    27 1   
    38    19    52 1   
    39    20    21 1   
    40    20    53 1   
    41    20    54 1   
    42    21    22 1   
    43    21    55 1   
    44    21    56 1   
    45    22    23 1   
    46    22    57 1   
    47    22    58 1   
    48    23    24 2   
    49    23    59 1   
    50    24    25 1   
    51    24    26 1   
    52    25    60 1   
    53    25    69 1   
    54    26    61 1   
    55    26    62 1   
    56    27    28 2   
    57    27    29 1   
    58    29    30 1   
    59    29    63 1   
    60    30    31 ar  
    61    30    35 ar  
    62    31    32 ar  
    63    31    64 1   
    64    32    33 ar  
    65    32    65 1   
    66    33    34 ar  
    67    33    66 1   
    68    34    35 ar  
    69    34    67 1   
    70    35    68 1   
@<TRIPOS>SUBSTRUCTURE
     1 8MI         1 TEMP              0 ****  ****    0 ROOT
