@<TRIPOS>MOLECULE
8MI
   69    70     1     0     0
SMALL
abcg2


@<TRIPOS>ATOM
      1 C1         -20.1950    92.4150    79.7090 c3         1 8MI      -0.055100
      2 C2         -20.1510    91.5940    80.9930 c3         1 8MI       0.013500
      3 C3         -21.2440    92.0260    82.0140 c          1 8MI       0.690000
      4 O4         -22.3510    92.3510    81.5400 o          1 8MI      -0.730500
      5 O5         -20.9440    91.9590    83.2240 o          1 8MI      -0.730500
      6 N6         -18.8040    91.5230    81.5460 n7         1 8MI      -0.840400
      7 C7         -18.2290    92.7990    81.9310 c3         1 8MI       0.127500
      8 C8         -17.3980    92.6380    83.2070 c3         1 8MI      -0.086400
      9 C9         -16.7840    93.9410    83.7180 c3         1 8MI      -0.038100
     10 C10        -16.1050    93.7430    85.0430 ca         1 8MI      -0.068300
     11 C11        -16.7910    93.9620    86.2350 ca         1 8MI      -0.105000
     12 C12        -16.1770    93.7450    87.4620 ca         1 8MI      -0.114000
     13 C13        -14.8630    93.2990    87.5140 ca         1 8MI      -0.119000
     14 C14        -14.1680    93.0760    86.3320 ca         1 8MI      -0.114000
     15 C15        -14.7860    93.2980    85.1090 ca         1 8MI      -0.105000
     16 C16        -17.3250    93.3200    80.8140 c          1 8MI       0.604100
     17 O17        -16.4530    92.6410    80.2930 o          1 8MI      -0.591100
     18 N18        -17.5350    94.5980    80.4480 ns         1 8MI      -0.518900
     19 C19        -16.7820    95.2150    79.3910 c3         1 8MI       0.049700
     20 C20        -17.3700    96.5850    79.0490 c3         1 8MI      -0.084400
     21 C21        -18.7870    96.4860    78.4990 c3         1 8MI      -0.098400
     22 C22        -19.3280    97.8530    78.1160 c3         1 8MI       0.058600
     23 N23        -20.7000    97.7180    77.6570 nu         1 8MI      -0.885000
     24 C24        -21.4190    98.6920    77.1150 cz         1 8MI       0.934600
     25 N25        -22.6660    98.4510    76.7300 nv         1 8MI      -0.616300
     26 N26        -20.8970    99.8990    76.9470 nv         1 8MI      -0.616300
     27 C27        -15.3160    95.3810    79.8030 c          1 8MI       0.598100
     28 O28        -15.0050    95.7040    80.9330 o          1 8MI      -0.564100
     29 N29        -14.4440    95.1870    78.7860 ns         1 8MI      -0.139000
     30 C30        -13.0490    95.3020    78.7770 ca         1 8MI      -0.018000
     31 C31        -12.4040    95.0270    77.5680 ca         1 8MI      -0.149500
     32 C32        -11.0260    95.1070    77.4680 ca         1 8MI      -0.083500
     33 C33        -10.2600    95.4630    78.5700 ca         1 8MI      -0.137000
     34 C34        -10.9000    95.7370    79.7700 ca         1 8MI      -0.083500
     35 C35        -12.2820    95.6610    79.8870 ca         1 8MI      -0.149500
     36 H36        -21.1520    92.2870    79.2100 hc         1 8MI       0.009700
     37 H37        -20.0690    93.4840    79.8920 hc         1 8MI       0.009700
     38 H38        -19.4110    92.0990    79.0180 hc         1 8MI       0.009700
     39 H39        -20.4050    90.5620    80.7130 h1         1 8MI       0.055700
     40 H40        -18.8580    90.9480    82.3770 hn         1 8MI       0.437000
     41 H41        -19.0020    93.5530    82.1410 h1         1 8MI       0.047700
     42 H42        -18.0600    92.2320    83.9760 hc         1 8MI       0.069200
     43 H43        -16.6150    91.8930    83.0380 hc         1 8MI       0.069200
     44 H44        -16.0680    94.3350    82.9940 hc         1 8MI       0.047200
     45 H45        -17.5720    94.6930    83.8200 hc         1 8MI       0.047200
     46 H46        -17.8160    94.3120    86.2020 ha         1 8MI       0.115500
     47 H47        -16.7260    93.9260    88.3780 ha         1 8MI       0.106000
     48 H48        -14.3820    93.1300    88.4690 ha         1 8MI       0.104000
     49 H49        -13.1410    92.7340    86.3630 ha         1 8MI       0.106000
     50 H50        -14.2360    93.1280    84.1900 ha         1 8MI       0.115500
     51 H51        -18.2230    95.1430    80.9420 hn         1 8MI       0.320500
     52 H52        -16.8390    94.5830    78.4980 h1         1 8MI       0.066700
     53 H53        -16.7240    97.0600    78.3070 hc         1 8MI       0.058200
     54 H54        -17.3500    97.2200    79.9400 hc         1 8MI       0.058200
     55 H55        -19.4550    96.0380    79.2400 hc         1 8MI       0.074200
     56 H56        -18.7980    95.8320    77.6230 hc         1 8MI       0.074200
     57 H57        -18.7130    98.2800    77.3200 h1         1 8MI       0.063200
     58 H58        -19.2780    98.5270    78.9760 h1         1 8MI       0.063200
     59 H59        -21.1640    96.8390    77.8310 hn         1 8MI       0.385000
     60 H61        -23.2380    99.1720    76.3220 hn         1 8MI       0.377500
     61 H62        -19.9860   100.1400    77.2990 hn         1 8MI       0.377500
     62 H63        -21.4320   100.6410    76.5260 hn         1 8MI       0.377500
     63 H64        -14.8490    94.9000    77.9070 hn         1 8MI       0.147000
     64 H65        -12.9880    94.7480    76.6980 ha         1 8MI       0.127000
     65 H66        -10.5510    94.8880    76.5200 ha         1 8MI       0.112500
     66 H67         -9.1830    95.5250    78.4950 ha         1 8MI       0.115000
     67 H68        -10.3200    96.0160    80.6400 ha         1 8MI       0.112500
     68 H69        -12.7450    95.8780    80.8350 ha         1 8MI       0.127000
     69 H60        -23.0660    97.5300    76.7950 hn         1 8MI       0.377500
@<TRIPOS>BOND
     1     1     2 1   
     2     1    36 1   
     3     1    37 1   
     4     1    38 1   
     5     2     3 1   
     6     2     6 1   
     7     2    39 1   
     8     3     4 1   
     9     3     5 1   
    10     6     7 1   
    11     6    40 1   
    12     7     8 1   
    13     7    16 1   
    14     7    41 1   
    15     8     9 1   
    16     8    42 1   
    17     8    43 1   
    18     9    10 1   
    19     9    44 1   
    20     9    45 1   
    21    10    11 ar  
    22    10    15 ar  
    23    11    12 ar  
    24    11    46 1   
    25    12    13 ar  
    26    12    47 1   
    27    13    14 ar  
    28    13    48 1   
    29    14    15 ar  
    30    14    49 1   
    31    15    50 1   
    32    16    17 2   
    33    16    18 1   
    34    18    19 1   
    35    18    51 1   
    36    19    20 1   
    37    19    27 1   
    38    19    52 1   
    39    20    21 1   
    40    20    53 1   
    41    20    54 1   
    42    21    22 1   
    43    21    55 1   
    44    21    56 1   
    45    22    23 1   
    46    22    57 1   
    47    22    58 1   
    48    23    24 2   
    49    23    59 1   
    50    24    25 1   
    51    24    26 1   
    52    25    60 1   
    53    25    69 1   
    54    26    61 1   
    55    26    62 1   
    56    27    28 2   
    57    27    29 1   
    58    29    30 1   
    59    29    63 1   
    60    30    31 ar  
    61    30    35 ar  
    62    31    32 ar  
    63    31    64 1   
    64    32    33 ar  
    65    32    65 1   
    66    33    34 ar  
    67    33    66 1   
    68    34    35 ar  
    69    34    67 1   
    70    35    68 1   
@<TRIPOS>SUBSTRUCTURE
     1 8MI         1 TEMP              0 ****  ****    0 ROOT
