@<TRIPOS>MOLECULE
8MJ
   20    21     1     0     0
SMALL
No Charge or Current Charge


@<TRIPOS>ATOM
      1 O           26.0290    23.9410    30.8290 o          1 8MJ      -0.503100
      2 C1          24.4280    22.4300    29.7830 ca         1 8MJ       0.257500
      3 C2          25.3680    21.4170    29.4940 ca         1 8MJ      -0.110000
      4 C5          23.1350    18.9440    27.8610 ca         1 8MJ      -0.146000
      5 C8          21.3310    21.0050    28.4710 ca         1 8MJ       0.181100
      6 C3          24.9480    20.2430    28.8500 ca         1 8MJ      -0.077000
      7 C4          23.5920    20.1090    28.5090 ca         1 8MJ      -0.020000
      8 C6          21.7790    18.8110    27.5200 ca         1 8MJ      -0.048000
      9 C7          20.8770    19.8430    27.8260 ca         1 8MJ      -0.170000
     10 C9          22.6940    21.1600    28.8240 ca         1 8MJ       0.180000
     11 N           23.1100    22.2970    29.4490 nb         1 8MJ      -0.662000
     12 C           24.8720    23.7050    30.4790 c          1 8MJ       0.482400
     13 O1          20.4460    22.0030    28.7640 oh         1 8MJ      -0.520100
     14 H1          26.4120    21.5430    29.7680 ha         1 8MJ       0.143000
     15 H2          23.8290    18.1420    27.6220 ha         1 8MJ       0.122000
     16 H3          25.6630    19.4550    28.6220 ha         1 8MJ       0.126000
     17 H4          21.4280    17.9100    27.0200 ha         1 8MJ       0.118000
     18 H5          19.8270    19.7430    27.5640 ha         1 8MJ       0.135000
     19 H6          24.0660    24.4480    30.6680 h4         1 8MJ       0.013200
     20 H7          20.9840    22.7000    29.2060 ho         1 8MJ       0.496000
@<TRIPOS>BOND
     1     1    12 2   
     2     2     3 ar  
     3     2    11 ar  
     4     2    12 1   
     5     3     6 ar  
     6     3    14 1   
     7     4     7 ar  
     8     4     8 ar  
     9     4    15 1   
    10     5     9 ar  
    11     5    10 ar  
    12     5    13 1   
    13     6     7 ar  
    14     6    16 1   
    15     7    10 ar  
    16     8     9 ar  
    17     8    17 1   
    18     9    18 1   
    19    10    11 ar  
    20    12    19 1   
    21    13    20 1   
@<TRIPOS>SUBSTRUCTURE
     1 8MJ         1 TEMP              0 ****  ****    0 ROOT
