@<TRIPOS>MOLECULE
8MJ
   20    21     1     0     0
SMALL
bcc


@<TRIPOS>ATOM
      1 O           25.8790    23.9440    30.7830 o          1 8MJ      -0.503100
      2 C1          24.4100    22.3840    29.7590 ca         1 8MJ       0.322800
      3 C2          25.3800    21.3950    29.4870 ca         1 8MJ      -0.193300
      4 C5          23.1290    18.9270    27.8530 ca         1 8MJ      -0.164000
      5 C8          21.3650    21.0340    28.4920 ca         1 8MJ       0.115800
      6 C3          24.9860    20.2460    28.8620 ca         1 8MJ      -0.095000
      7 C4          23.6310    20.0720    28.5020 ca         1 8MJ      -0.085300
      8 C6          21.7940    18.8620    27.5450 ca         1 8MJ      -0.066000
      9 C7          20.9040    19.9070    27.8590 ca         1 8MJ      -0.188000
     10 C9          22.7470    21.1310    28.8240 ca         1 8MJ       0.310600
     11 N           23.1460    22.2540    29.4410 nb         1 8MJ      -0.662000
     12 C           24.7630    23.6550    30.4310 c          1 8MJ       0.482400
     13 O1          20.5450    22.0400    28.8020 oh         1 8MJ      -0.481100
     14 H1          26.4110    21.5520    29.7710 ha         1 8MJ       0.161000
     15 H2          23.7990    18.1140    27.6050 ha         1 8MJ       0.140000
     16 H3          25.7010    19.4640    28.6380 ha         1 8MJ       0.144000
     17 H4          21.4020    17.9850    27.0460 ha         1 8MJ       0.136000
     18 H5          19.8560    19.8220    27.6010 ha         1 8MJ       0.153000
     19 H6          23.9030    24.3290    30.5850 h4         1 8MJ       0.013200
     20 H7          21.0660    22.7310    29.2420 ho         1 8MJ       0.457000
@<TRIPOS>BOND
     1     1    12 2   
     2     2     3 ar  
     3     2    11 ar  
     4     2    12 1   
     5     3     6 ar  
     6     3    14 1   
     7     4     7 ar  
     8     4     8 ar  
     9     4    15 1   
    10     5     9 ar  
    11     5    10 ar  
    12     5    13 1   
    13     6     7 ar  
    14     6    16 1   
    15     7    10 ar  
    16     8     9 ar  
    17     8    17 1   
    18     9    18 1   
    19    10    11 ar  
    20    12    19 1   
    21    13    20 1   
@<TRIPOS>SUBSTRUCTURE
     1 8MJ         1 TEMP              0 ****  ****    0 ROOT
