@<TRIPOS>MOLECULE
8MK
   22    22     1     0     0
SMALL
abcg2


@<TRIPOS>ATOM
      1 C4           0.3770     0.2030    -0.0650 ca         1 8MK      -0.119800
      2 C5           0.8990    -1.0980    -0.0550 ca         1 8MK      -0.044000
      3 C6           2.2580    -1.3260    -0.0740 ca         1 8MK      -0.184500
      4 C7           3.1480    -0.2480    -0.1040 ca         1 8MK       0.157100
      5 C8           2.6510     1.0530    -0.1170 ca         1 8MK      -0.184500
      6 C9           1.2840     1.2650    -0.0970 ca         1 8MK      -0.044000
      7 O           -3.8000     1.1900     0.0070 o          1 8MK      -0.535100
      8 C1          -3.4620     0.0200     0.0090 c          1 8MK       0.572300
      9 C           -4.4670    -1.1000     0.0320 c3         1 8MK      -0.195100
     10 C2          -2.0520    -0.4010    -0.0110 ce         1 8MK      -0.329200
     11 C3          -1.0470     0.4880    -0.0430 cf         1 8MK      -0.063200
     12 O1           4.4600    -0.5280    -0.1190 oh         1 8MK      -0.529100
     13 H1           0.2330    -1.9520    -0.0330 ha         1 8MK       0.117000
     14 H2           2.6430    -2.3380    -0.0640 ha         1 8MK       0.124000
     15 H3           3.3280     1.8990    -0.1420 ha         1 8MK       0.124000
     16 H4           0.9120     2.2830    -0.1060 ha         1 8MK       0.117000
     17 H5          -5.4870    -0.7220     0.0350 hc         1 8MK       0.059367
     18 H6          -4.3260    -1.7490    -0.8350 hc         1 8MK       0.059367
     19 H7          -4.3130    -1.7240     0.9140 hc         1 8MK       0.059367
     20 H8          -1.8630    -1.4680     0.0000 ha         1 8MK       0.180000
     21 H9          -1.3080     1.5430    -0.0530 ha         1 8MK       0.190000
     22 H10          4.9830     0.2820    -0.1330 ho         1 8MK       0.469000
@<TRIPOS>BOND
     1     1     2 ar  
     2     1     6 ar  
     3     1    11 1   
     4     2     3 ar  
     5     2    13 1   
     6     3     4 ar  
     7     3    14 1   
     8     4     5 ar  
     9     4    12 1   
    10     5     6 ar  
    11     5    15 1   
    12     6    16 1   
    13     7     8 2   
    14     8     9 1   
    15     8    10 1   
    16     9    17 1   
    17     9    18 1   
    18     9    19 1   
    19    10    11 2   
    20    10    20 1   
    21    11    21 1   
    22    12    22 1   
@<TRIPOS>SUBSTRUCTURE
     1 8MK         1 TEMP              0 ****  ****    0 ROOT
