@<TRIPOS>MOLECULE
8MK
   22    22     1     0     0
SMALL
No Charge or Current Charge


@<TRIPOS>ATOM
      1 C4           0.4090     0.2100    -0.0640 ca         1 8MK      -0.119800
      2 C5           0.9090    -1.1110    -0.0540 ca         1 8MK      -0.044000
      3 C6           2.2950    -1.3460    -0.0740 ca         1 8MK      -0.184500
      4 C7           3.1930    -0.2710    -0.1030 ca         1 8MK       0.157100
      5 C8           2.7080     1.0450    -0.1140 ca         1 8MK      -0.184500
      6 C9           1.3220     1.2840    -0.0940 ca         1 8MK      -0.044000
      7 O           -3.8760     1.1940    -0.0070 o          1 8MK      -0.535100
      8 C1          -3.5290     0.0210     0.0040 c          1 8MK       0.572300
      9 C           -4.5540    -1.1090     0.0360 c3         1 8MK      -0.195100
     10 C2          -2.0930    -0.3790    -0.0150 ce         1 8MK      -0.329200
     11 C3          -1.0420     0.4940    -0.0440 cf         1 8MK      -0.063200
     12 O1           4.5330    -0.5110    -0.1220 oh         1 8MK      -0.529100
     13 H1           0.2350    -1.9630    -0.0310 ha         1 8MK       0.117000
     14 H2           2.6720    -2.3650    -0.0660 ha         1 8MK       0.124000
     15 H3           3.3960     1.8870    -0.1370 ha         1 8MK       0.124000
     16 H4           0.9610     2.3110    -0.1020 ha         1 8MK       0.117000
     17 H5          -5.5870    -0.7450     0.0480 hc         1 8MK       0.059367
     18 H6          -4.3690    -1.7790    -0.8110 hc         1 8MK       0.059367
     19 H7          -4.3410    -1.7560     0.8940 hc         1 8MK       0.059367
     20 H8          -1.9110    -1.4500    -0.0030 ha         1 8MK       0.180000
     21 H9          -1.2830     1.5600    -0.0550 ha         1 8MK       0.190000
     22 H10          5.0020     0.3500    -0.1420 ho         1 8MK       0.469000
@<TRIPOS>BOND
     1     1     2 ar  
     2     1     6 ar  
     3     1    11 1   
     4     2     3 ar  
     5     2    13 1   
     6     3     4 ar  
     7     3    14 1   
     8     4     5 ar  
     9     4    12 1   
    10     5     6 ar  
    11     5    15 1   
    12     6    16 1   
    13     7     8 2   
    14     8     9 1   
    15     8    10 1   
    16     9    17 1   
    17     9    18 1   
    18     9    19 1   
    19    10    11 2   
    20    10    20 1   
    21    11    21 1   
    22    12    22 1   
@<TRIPOS>SUBSTRUCTURE
     1 8MK         1 TEMP              0 ****  ****    0 ROOT
