@<TRIPOS>MOLECULE
8MM
   75    77     1     0     0
SMALL
No Charge or Current Charge


@<TRIPOS>ATOM
      1 C4          -5.9260    -0.3540    -0.2220 c6         1 8MM      -0.082400
      2 C14          3.8510     0.4950     1.1470 c6         1 8MM       0.130300
      3 C5          -4.8080    -1.1790     0.4660 c6         1 8MM       0.087700
      4 C6          -3.5190    -0.3060     0.6350 c6         1 8MM       0.363300
      5 C11          0.9440     0.2510    -0.4220 c6         1 8MM       0.158300
      6 C7          -1.5840     0.5860    -0.6300 c6         1 8MM       0.186300
      7 C8          -1.3290     1.3320    -1.9910 c6         1 8MM       0.168500
      8 C9           0.0700     2.0000    -2.0440 c6         1 8MM      -0.116400
      9 C10          1.1870     0.9630    -1.7860 c6         1 8MM       0.149500
     10 C12         -0.4370    -0.4660    -0.3960 c6         1 8MM       0.132300
     11 C13          2.6360    -0.5090     1.1840 c6         1 8MM       0.357300
     12 N1           2.5170     1.6260    -1.8470 n8         1 8MM      -1.000200
     13 N2          -2.3760     2.3390    -2.2780 n8         1 8MM      -0.991200
     14 C3          -6.1610     0.9780     0.5300 c6         1 8MM      -0.106400
     15 N3          -4.5430    -2.4150    -0.2960 ns         1 8MM      -0.487900
     16 N            6.2690     0.7640     0.2470 n7         1 8MM      -0.875400
     17 O           -3.8410     0.9260     1.3250 os         1 8MM      -0.443000
     18 C1          -5.0100     3.0750     1.5080 c3         1 8MM       0.160800
     19 C15          5.0480    -0.1140     0.3070 c6         1 8MM       0.173500
     20 C16          5.4200    -1.5420     0.8760 c6         1 8MM       0.161000
     21 C17          4.0990    -2.4110     0.8900 c6         1 8MM       0.123600
     22 C18          6.4990    -2.2510     0.0080 c3         1 8MM      -0.115100
     23 C19          6.2560     1.9830    -0.5860 c3         1 8MM       0.161100
     24 C2          -4.8310     1.7600     0.6720 c6         1 8MM       0.166300
     25 CAC         -3.7280    -4.6630    -0.8000 c3         1 8MM      -0.177100
     26 CAW         -3.9650    -3.5520     0.2150 c          1 8MM       0.605100
     27 N4          -3.7980     3.9270     1.6400 n8         1 8MM      -0.987200
     28 O1          -2.9200    -0.0020    -0.6510 os         1 8MM      -0.498000
     29 O2          -0.5650    -1.2300     0.8200 oh         1 8MM      -0.720000
     30 O3           2.0170    -0.6750    -0.1120 os         1 8MM      -0.511000
     31 O4           3.0210    -1.8080     1.6670 os         1 8MM      -0.453000
     32 O5           5.9490    -1.4190     2.2160 oh         1 8MM      -0.709000
     33 OAH         -3.6690    -3.6610     1.3960 o          1 8MM      -0.602100
     34 H1          -5.6510    -0.1440    -1.2650 hc         1 8MM       0.049200
     35 H2          -6.8580    -0.9350    -0.2530 hc         1 8MM       0.049200
     36 H3           4.2050     0.5860     2.1840 h1         1 8MM       0.092700
     37 H4          -5.1540    -1.4620     1.4720 h1         1 8MM       0.097700
     38 H5          -2.8200    -0.8850     1.2530 h2         1 8MM       0.107700
     39 H6           0.9180     1.0360     0.3490 h1         1 8MM       0.056700
     40 H7          -1.5440     1.3350     0.1740 h1         1 8MM       0.080700
     41 H8          -1.3910     0.5830    -2.7950 h1         1 8MM       0.023700
     42 H9           0.2180     2.4680    -3.0260 hc         1 8MM       0.055700
     43 H10          0.1260     2.8050    -1.2970 hc         1 8MM       0.055700
     44 H11          1.1510     0.2140    -2.5930 h1         1 8MM       0.070700
     45 H12         -0.4590    -1.1610    -1.2490 h1         1 8MM       0.041700
     46 H13          1.8910    -0.1070     1.8890 h2         1 8MM       0.081700
     47 H14          3.1590     0.9940    -2.3460 hn         1 8MM       0.407500
     48 H15          2.4500     2.4220    -2.4960 hn         1 8MM       0.407500
     49 H17         -2.4270     2.4830    -3.2920 hn         1 8MM       0.399000
     50 H18         -3.2760     1.9030    -2.0490 hn         1 8MM       0.399000
     51 H20         -6.8990     1.5860    -0.0110 hc         1 8MM       0.052200
     52 H21         -6.5850     0.7770     1.5240 hc         1 8MM       0.052200
     53 H22         -4.7320    -2.4130    -1.2910 hn         1 8MM       0.310500
     54 H24          6.5480     1.0010     1.2070 hn         1 8MM       0.431000
     55 H26         -5.7930     3.6780     1.0260 h1         1 8MM       0.033200
     56 H27         -5.3640     2.8130     2.5150 h1         1 8MM       0.033200
     57 H28          4.6880    -0.2650    -0.7230 h1         1 8MM       0.064700
     58 H29          3.7510    -2.5700    -0.1410 h1         1 8MM       0.051700
     59 H30          4.3150    -3.4030     1.3110 h1         1 8MM       0.051700
     60 H31          7.4530    -1.7100     0.0220 hc         1 8MM       0.046033
     61 H32          6.6950    -3.2700     0.3630 hc         1 8MM       0.046033
     62 H33          6.1780    -2.3250    -1.0380 hc         1 8MM       0.046033
     63 H34          7.2700     2.3960    -0.6710 h1         1 8MM       0.027367
     64 H35          5.8960     1.7610    -1.6000 h1         1 8MM       0.027367
     65 H36          5.6200     2.7650    -0.1530 h1         1 8MM       0.027367
     66 H37         -4.4660     2.0360    -0.3270 h1         1 8MM       0.027700
     67 H38         -3.1220    -4.2690    -1.6240 hc         1 8MM       0.056367
     68 H39         -3.2730    -5.5530    -0.3520 hc         1 8MM       0.056367
     69 H40         -4.6750    -4.8990    -1.2990 hc         1 8MM       0.056367
     70 H42         -3.4730     4.1920     0.7020 hn         1 8MM       0.397000
     71 H43         -4.0610     4.8220     2.0700 hn         1 8MM       0.397000
     72 H45          0.2790    -1.7350     0.8970 ho         1 8MM       0.526000
     73 H46          6.1490    -2.3290     2.5310 ho         1 8MM       0.500000
     74 O6           3.4350     1.8040     0.6690 oh         1 8MM      -0.754000
     75 H47          3.0840     1.6740    -0.2690 ho         1 8MM       0.549000
@<TRIPOS>BOND
     1     1     3 1   
     2     1    14 1   
     3     1    34 1   
     4     1    35 1   
     5     2    11 1   
     6     2    19 1   
     7     2    36 1   
     8     2    74 1   
     9     3     4 1   
    10     3    15 1   
    11     3    37 1   
    12     4    17 1   
    13     4    28 1   
    14     4    38 1   
    15     5     9 1   
    16     5    10 1   
    17     5    30 1   
    18     5    39 1   
    19     6     7 1   
    20     6    10 1   
    21     6    28 1   
    22     6    40 1   
    23     7     8 1   
    24     7    13 1   
    25     7    41 1   
    26     8     9 1   
    27     8    42 1   
    28     8    43 1   
    29     9    12 1   
    30     9    44 1   
    31    10    29 1   
    32    10    45 1   
    33    11    30 1   
    34    11    31 1   
    35    11    46 1   
    36    12    47 1   
    37    12    48 1   
    38    13    49 1   
    39    13    50 1   
    40    14    24 1   
    41    14    51 1   
    42    14    52 1   
    43    15    26 1   
    44    15    53 1   
    45    16    19 1   
    46    16    23 1   
    47    16    54 1   
    48    17    24 1   
    49    18    24 1   
    50    18    27 1   
    51    18    55 1   
    52    18    56 1   
    53    19    20 1   
    54    19    57 1   
    55    20    21 1   
    56    20    22 1   
    57    20    32 1   
    58    21    31 1   
    59    21    58 1   
    60    21    59 1   
    61    22    60 1   
    62    22    61 1   
    63    22    62 1   
    64    23    63 1   
    65    23    64 1   
    66    23    65 1   
    67    24    66 1   
    68    25    26 1   
    69    25    67 1   
    70    25    68 1   
    71    25    69 1   
    72    26    33 2   
    73    27    70 1   
    74    27    71 1   
    75    29    72 1   
    76    32    73 1   
    77    74    75 1   
@<TRIPOS>SUBSTRUCTURE
     1 8MM         1 TEMP              0 ****  ****    0 ROOT
