@<TRIPOS>MOLECULE
8MM
   75    77     1     0     0
SMALL
bcc


@<TRIPOS>ATOM
      1 C4          -5.3070    -1.1110    -0.3870 c6         1 8MM      -0.082400
      2 C14          4.3110     0.3550     0.8200 c6         1 8MM       0.107100
      3 C5          -4.1660    -1.2570     0.6120 c6         1 8MM       0.087700
      4 C6          -3.4190     0.0710     0.8000 c6         1 8MM       0.316900
      5 C11          0.9810     1.0800    -0.0330 c6         1 8MM       0.135100
      6 C7          -1.5330     1.1210    -0.2510 c6         1 8MM       0.163100
      7 C8          -1.3950     1.9580    -1.5200 c6         1 8MM       0.168500
      8 C9          -0.1430     2.8200    -1.4210 c6         1 8MM      -0.116400
      9 C10          1.1200     1.9820    -1.2540 c6         1 8MM       0.149500
     10 C12         -0.2970     0.2410    -0.0750 c6         1 8MM       0.109100
     11 C13          2.8480     0.0710     1.1700 c6         1 8MM       0.310900
     12 N1           2.3440     2.7660    -1.1420 n8         1 8MM      -0.889800
     13 N2          -2.5600     2.8080    -1.6960 n8         1 8MM      -0.880800
     14 C3          -6.1860     0.0740     0.0010 c6         1 8MM      -0.106400
     15 N3          -3.2540    -2.3040     0.2200 ns         1 8MM      -0.554900
     16 N            6.2420    -0.5580    -0.4990 n7         1 8MM      -0.820200
     17 O           -4.3000     1.1110     1.1010 os         1 8MM      -0.396600
     18 C1          -6.1290     2.5430     0.5830 c3         1 8MM       0.160800
     19 C15          4.8510    -0.7250    -0.1330 c6         1 8MM       0.173500
     20 C16          4.6160    -2.1150     0.4930 c6         1 8MM       0.137800
     21 C17          3.1420    -2.2550     0.8760 c6         1 8MM       0.100400
     22 C18          4.9730    -3.2270    -0.4840 c3         1 8MM      -0.115100
     23 C19          6.4990     0.2710    -1.6590 c3         1 8MM       0.161100
     24 C2          -5.3370     1.3250     0.1530 c6         1 8MM       0.143100
     25 CAC         -1.4740    -3.9100     0.4790 c3         1 8MM      -0.177100
     26 CAW         -2.5270    -3.0220     1.0960 c          1 8MM       0.672100
     27 N4          -5.2710     3.7100     0.7150 n8         1 8MM      -0.876800
     28 O1          -2.6910     0.3160    -0.3680 os         1 8MM      -0.451600
     29 O2          -0.4410    -0.5050     1.1110 oh         1 8MM      -0.597800
     30 O3           2.0910     0.2090     0.0010 os         1 8MM      -0.464600
     31 O4           2.6780    -1.2060     1.7110 os         1 8MM      -0.406600
     32 O5           5.4350    -2.1740     1.6490 oh         1 8MM      -0.586800
     33 OAH         -2.7080    -2.9870     2.3060 o          1 8MM      -0.602100
     34 H1          -4.9090    -0.9630    -1.3960 hc         1 8MM       0.049200
     35 H2          -5.8910    -2.0330    -0.4100 hc         1 8MM       0.049200
     36 H3           4.8860     0.2990     1.7520 h1         1 8MM       0.092700
     37 H4          -4.5890    -1.5250     1.5830 h1         1 8MM       0.097700
     38 H5          -2.7570    -0.0020     1.6670 h2         1 8MM       0.107700
     39 H6           0.9600     1.7070     0.8720 h1         1 8MM       0.056700
     40 H7          -1.6280     1.8080     0.6020 h1         1 8MM       0.080700
     41 H8          -1.2580     1.2590    -2.3630 h1         1 8MM       0.023700
     42 H9          -0.0500     3.4380    -2.3180 hc         1 8MM       0.055700
     43 H10         -0.2480     3.5060    -0.5730 hc         1 8MM       0.055700
     44 H11          1.2300     1.3370    -2.1330 h1         1 8MM       0.070700
     45 H12         -0.2320    -0.4270    -0.9490 h1         1 8MM       0.041700
     46 H13          2.5010     0.7740     1.9380 h2         1 8MM       0.081700
     47 H14          2.5860     3.1610    -2.0420 hn         1 8MM       0.352300
     48 H15          2.1890     3.5550    -0.5220 hn         1 8MM       0.352300
     49 H17         -2.4300     3.3770    -2.5250 hn         1 8MM       0.343800
     50 H18         -3.3690     2.2330    -1.8890 hn         1 8MM       0.343800
     51 H20         -6.9500     0.2410    -0.7620 hc         1 8MM       0.052200
     52 H21         -6.7070    -0.1370     0.9400 hc         1 8MM       0.052200
     53 H22         -2.9570    -2.3040    -0.7430 hn         1 8MM       0.310500
     54 H24          6.7790    -0.2290     0.2920 hn         1 8MM       0.375800
     55 H26         -6.9320     2.6640    -0.1580 h1         1 8MM       0.033200
     56 H27         -6.6200     2.3450     1.5410 h1         1 8MM       0.033200
     57 H28          4.2640    -0.6970    -1.0590 h1         1 8MM       0.064700
     58 H29          2.5340    -2.3240    -0.0340 h1         1 8MM       0.051700
     59 H30          2.9890    -3.1800     1.4370 h1         1 8MM       0.051700
     60 H31          6.0120    -3.1380    -0.7930 hc         1 8MM       0.046033
     61 H32          4.8290    -4.2100    -0.0270 hc         1 8MM       0.046033
     62 H33          4.3490    -3.1890    -1.3780 hc         1 8MM       0.046033
     63 H34          7.5680     0.2650    -1.8750 h1         1 8MM       0.027367
     64 H35          5.9940    -0.1510    -2.5300 h1         1 8MM       0.027367
     65 H36          6.1810     1.3150    -1.5670 h1         1 8MM       0.027367
     66 H37         -4.9020     1.5570    -0.8270 h1         1 8MM       0.027700
     67 H38         -0.4930    -3.6020     0.8400 hc         1 8MM       0.056367
     68 H39         -1.6270    -4.9400     0.7980 hc         1 8MM       0.056367
     69 H40         -1.4620    -3.8830    -0.6090 hc         1 8MM       0.056367
     70 H42         -4.6600     3.7790    -0.0910 hn         1 8MM       0.341800
     71 H43         -5.8360     4.5490     0.7160 hn         1 8MM       0.341800
     72 H45          0.3320    -1.0690     1.2230 ho         1 8MM       0.427000
     73 H46          5.3490    -3.0510     2.0370 ho         1 8MM       0.401000
     74 O6           4.4630     1.6630     0.3450 oh         1 8MM      -0.631800
     75 H47          3.7520     1.8930    -0.3000 ho         1 8MM       0.450000
@<TRIPOS>BOND
     1     1     3 1   
     2     1    14 1   
     3     1    34 1   
     4     1    35 1   
     5     2    11 1   
     6     2    19 1   
     7     2    36 1   
     8     2    74 1   
     9     3     4 1   
    10     3    15 1   
    11     3    37 1   
    12     4    17 1   
    13     4    28 1   
    14     4    38 1   
    15     5     9 1   
    16     5    10 1   
    17     5    30 1   
    18     5    39 1   
    19     6     7 1   
    20     6    10 1   
    21     6    28 1   
    22     6    40 1   
    23     7     8 1   
    24     7    13 1   
    25     7    41 1   
    26     8     9 1   
    27     8    42 1   
    28     8    43 1   
    29     9    12 1   
    30     9    44 1   
    31    10    29 1   
    32    10    45 1   
    33    11    30 1   
    34    11    31 1   
    35    11    46 1   
    36    12    47 1   
    37    12    48 1   
    38    13    49 1   
    39    13    50 1   
    40    14    24 1   
    41    14    51 1   
    42    14    52 1   
    43    15    26 1   
    44    15    53 1   
    45    16    19 1   
    46    16    23 1   
    47    16    54 1   
    48    17    24 1   
    49    18    24 1   
    50    18    27 1   
    51    18    55 1   
    52    18    56 1   
    53    19    20 1   
    54    19    57 1   
    55    20    21 1   
    56    20    22 1   
    57    20    32 1   
    58    21    31 1   
    59    21    58 1   
    60    21    59 1   
    61    22    60 1   
    62    22    61 1   
    63    22    62 1   
    64    23    63 1   
    65    23    64 1   
    66    23    65 1   
    67    24    66 1   
    68    25    26 1   
    69    25    67 1   
    70    25    68 1   
    71    25    69 1   
    72    26    33 2   
    73    27    70 1   
    74    27    71 1   
    75    29    72 1   
    76    32    73 1   
    77    74    75 1   
@<TRIPOS>SUBSTRUCTURE
     1 8MM         1 TEMP              0 ****  ****    0 ROOT
