@<TRIPOS>MOLECULE
8MN
   22    22     1     0     0
SMALL
No Charge or Current Charge


@<TRIPOS>ATOM
      1 C4          -1.7550     1.5610     0.0490 ca         1 8MN      -0.104500
      2 C5          -0.7090     0.6200     0.0010 ca         1 8MN      -0.113000
      3 C6           2.0650    -0.2650    -0.0560 c3         1 8MN      -0.083400
      4 N1           5.8650    -1.0050    -0.1110 n8         1 8MN      -0.717200
      5 C7           3.5620     0.0720    -0.0500 c          1 8MN       0.636100
      6 Cl          -5.0750    -0.7610    -0.0320 cl         1 8MN      -0.201000
      7 C2          -3.3980    -0.2310    -0.0200 ca         1 8MN       0.111000
      8 C1          -2.3620    -1.1770    -0.0690 ca         1 8MN      -0.088500
      9 C3          -3.0960     1.1390     0.0390 ca         1 8MN      -0.088500
     10 C           -1.0200    -0.7560    -0.0590 ca         1 8MN      -0.104500
     11 S            0.9800     1.2360     0.0170 ss         1 8MN      -0.054000
     12 O            4.0000     1.2160    -0.0030 o          1 8MN      -0.538100
     13 N            4.4020    -1.0470    -0.1040 ns         1 8MN      -0.409300
     14 H1          -1.5280     2.6240     0.0950 ha         1 8MN       0.120000
     15 H2           1.8480    -0.8250    -0.9730 h1         1 8MN       0.078700
     16 H3           1.8590    -0.9040     0.8110 h1         1 8MN       0.078700
     17 H4           6.2620    -1.5170     0.6920 hn         1 8MN       0.400000
     18 H5           6.2520    -1.4450    -0.9590 hn         1 8MN       0.400000
     19 H6          -2.6000    -2.2370    -0.1140 ha         1 8MN       0.129000
     20 H7          -3.8990     1.8710     0.0770 ha         1 8MN       0.129000
     21 H8          -0.2410    -1.5120    -0.0970 ha         1 8MN       0.120000
     22 H9           3.9350    -1.9550    -0.1400 hn         1 8MN       0.299500
@<TRIPOS>BOND
     1     1     2 ar  
     2     1     9 ar  
     3     1    14 1   
     4     2    10 ar  
     5     2    11 1   
     6     3     5 1   
     7     3    11 1   
     8     3    15 1   
     9     3    16 1   
    10     4    13 1   
    11     4    17 1   
    12     4    18 1   
    13     5    12 2   
    14     5    13 1   
    15     6     7 1   
    16     7     8 ar  
    17     7     9 ar  
    18     8    10 ar  
    19     8    19 1   
    20     9    20 1   
    21    10    21 1   
    22    13    22 1   
@<TRIPOS>SUBSTRUCTURE
     1 8MN         1 TEMP              0 ****  ****    0 ROOT
