@<TRIPOS>MOLECULE
8MN
   22    22     1     0     0
SMALL
abcg2


@<TRIPOS>ATOM
      1 C4          -1.6170     1.5100     0.0540 ca         1 8MN      -0.104500
      2 C5          -0.6130     0.5390     0.0590 ca         1 8MN      -0.113000
      3 C6           2.0110    -0.3710    -0.0770 c3         1 8MN      -0.083400
      4 N1           5.6800    -0.8440    -0.1150 n8         1 8MN      -0.717200
      5 C7           3.4760     0.0320    -0.0680 c          1 8MN       0.636100
      6 CL          -4.9660    -0.6470    -0.1100 cl         1 8MN      -0.201000
      7 C2          -3.2950    -0.1920    -0.0440 ca         1 8MN       0.111000
      8 C1          -2.3170    -1.1700    -0.0420 ca         1 8MN      -0.088500
      9 C3          -2.9520     1.1510     0.0050 ca         1 8MN      -0.088500
     10 C           -0.9780    -0.8040     0.0120 ca         1 8MN      -0.104500
     11 S            1.0420     1.1350     0.1380 ss         1 8MN      -0.054000
     12 O            3.8200     1.1990    -0.0410 o          1 8MN      -0.538100
     13 N            4.3080    -1.0200    -0.0950 ns         1 8MN      -0.409300
     14 H1          -1.3600     2.5620     0.0840 ha         1 8MN       0.120000
     15 H2           1.7630    -0.8540    -1.0260 h1         1 8MN       0.078700
     16 H3           1.8140    -1.0870     0.7240 h1         1 8MN       0.078700
     17 H4           6.0850    -1.3270     0.6760 hn         1 8MN       0.400000
     18 H5           6.0550    -1.2620    -0.9560 hn         1 8MN       0.400000
     19 H6          -2.5830    -2.2180    -0.0800 ha         1 8MN       0.129000
     20 H7          -3.7160     1.9160     0.0010 ha         1 8MN       0.129000
     21 H8          -0.2370    -1.5900     0.0180 ha         1 8MN       0.120000
     22 H9           3.9260    -1.9560    -0.1210 hn         1 8MN       0.299500
@<TRIPOS>BOND
     1     1     2 ar  
     2     1     9 ar  
     3     1    14 1   
     4     2    10 ar  
     5     2    11 1   
     6     3     5 1   
     7     3    11 1   
     8     3    15 1   
     9     3    16 1   
    10     4    13 1   
    11     4    17 1   
    12     4    18 1   
    13     5    12 2   
    14     5    13 1   
    15     6     7 1   
    16     7     8 ar  
    17     7     9 ar  
    18     8    10 ar  
    19     8    19 1   
    20     9    20 1   
    21    10    21 1   
    22    13    22 1   
@<TRIPOS>SUBSTRUCTURE
     1 8MN         1 TEMP              0 ****  ****    0 ROOT
