@<TRIPOS>MOLECULE
8MO
   24    26     1     0     0
SMALL
No Charge or Current Charge


@<TRIPOS>ATOM
      1 C1          -1.4230    -0.0020     0.7320 ca         1 8MO      -0.163800
      2 C2          -0.1890     0.4230    -3.6860 cc         1 8MO      -0.066900
      3 C3          -1.3990     0.2620    -3.0420 cd         1 8MO      -0.228200
      4 C4           3.1590     0.5640    -1.0800 c3         1 8MO       0.145900
      5 C5          -0.1890    -0.0620     3.3120 c          1 8MO       0.669300
      6 C6          -1.6470    -0.1910     3.1570 cc         1 8MO      -0.321200
      7 C7          -2.2500    -0.1640     1.9220 cd         1 8MO      -0.068200
      8 C8          -2.0020     0.0310    -0.5530 ca         1 8MO      -0.005000
      9 C9          -1.1410     0.1900    -1.6420 ca         1 8MO      -0.131800
     10 C10          0.2220     0.3120    -1.5150 ca         1 8MO       0.077100
     11 C11          0.8340     0.2820    -0.2370 ca         1 8MO       0.084100
     12 C12         -0.0190     0.1220     0.8880 ca         1 8MO       0.165100
     13 O1           0.5320     0.0870     2.1540 os         1 8MO      -0.322200
     14 O2           0.8420     0.4570    -2.7470 os         1 8MO      -0.157200
     15 O3           2.2020     0.3990    -0.0200 os         1 8MO      -0.322100
     16 O4           0.3550    -0.0860     4.4070 o          1 8MO      -0.477000
     17 H2           0.0730     0.5210    -4.7370 h4         1 8MO       0.244000
     18 H3          -2.3710     0.2020    -3.5270 ha         1 8MO       0.218000
     19 H41          4.1730     0.6330    -0.6670 h1         1 8MO       0.041033
     20 H42          3.1330    -0.2910    -1.7680 h1         1 8MO       0.041033
     21 H43          2.9620     1.4840    -1.6450 h1         1 8MO       0.041033
     22 H6          -2.2070    -0.3090     4.0770 ha         1 8MO       0.215000
     23 H7          -3.3320    -0.2620     1.8400 ha         1 8MO       0.192000
     24 H8          -3.0770    -0.0620    -0.6970 ha         1 8MO       0.128000
@<TRIPOS>BOND
     1     1     7 1   
     2     1     8 ar  
     3     1    12 ar  
     4     2     3 2   
     5     2    14 1   
     6     2    17 1   
     7     3     9 1   
     8     3    18 1   
     9     4    15 1   
    10     4    19 1   
    11     4    20 1   
    12     4    21 1   
    13     5     6 1   
    14     5    13 1   
    15     5    16 2   
    16     6     7 2   
    17     6    22 1   
    18     7    23 1   
    19     8     9 ar  
    20     8    24 1   
    21     9    10 ar  
    22    10    11 ar  
    23    10    14 1   
    24    11    12 ar  
    25    11    15 1   
    26    12    13 1   
@<TRIPOS>SUBSTRUCTURE
     1 8MO         1 TEMP              0 ****  ****    0 ROOT
