@<TRIPOS>MOLECULE
8MO
   24    26     1     0     0
SMALL
bcc


@<TRIPOS>ATOM
      1 C1          -1.3590     0.0670     0.6090 ca         1 8MO      -0.163800
      2 C2          -0.3120    -0.0240    -3.7910 cc         1 8MO      -0.016900
      3 C3          -1.5080     0.0960    -3.1880 cd         1 8MO      -0.178200
      4 C4           2.9350     0.8700    -0.5030 c3         1 8MO       0.122700
      5 C5           0.0450    -0.0750     3.0620 c          1 8MO       0.744800
      6 C6          -1.3960     0.0640     3.0300 cc         1 8MO      -0.271200
      7 C7          -2.0570     0.1290     1.8620 cd         1 8MO      -0.018200
      8 C8          -2.0080     0.1370    -0.6220 ca         1 8MO      -0.023000
      9 C9          -1.2420     0.0680    -1.7740 ca         1 8MO      -0.131800
     10 C10          0.1490    -0.0710    -1.6710 ca         1 8MO       0.077100
     11 C11          0.8330    -0.1530    -0.4670 ca         1 8MO       0.084100
     12 C12          0.0400    -0.0690     0.6730 ca         1 8MO       0.165100
     13 O1           0.6800    -0.1380     1.8630 os         1 8MO      -0.322200
     14 O2           0.7080    -0.1280    -2.8900 os         1 8MO      -0.157200
     15 O3           2.1680    -0.3290    -0.3950 os         1 8MO      -0.298900
     16 O4           0.7290    -0.1420     4.0530 o          1 8MO      -0.552500
     17 H2          -0.0250    -0.0510    -4.8290 h4         1 8MO       0.194000
     18 H3          -2.4640     0.1920    -3.6750 ha         1 8MO       0.168000
     19 H41          3.9810     0.5800    -0.4390 h1         1 8MO       0.041033
     20 H42          2.7650     1.3730    -1.4570 h1         1 8MO       0.041033
     21 H43          2.7090     1.5640     0.3100 h1         1 8MO       0.041033
     22 H6          -1.9100     0.1100     3.9790 ha         1 8MO       0.165000
     23 H7          -3.1350     0.2300     1.8490 ha         1 8MO       0.142000
     24 H8          -3.0850     0.2370    -0.6610 ha         1 8MO       0.146000
@<TRIPOS>BOND
     1     1     7 1   
     2     1     8 ar  
     3     1    12 ar  
     4     2     3 2   
     5     2    14 1   
     6     2    17 1   
     7     3     9 1   
     8     3    18 1   
     9     4    15 1   
    10     4    19 1   
    11     4    20 1   
    12     4    21 1   
    13     5     6 1   
    14     5    13 1   
    15     5    16 2   
    16     6     7 2   
    17     6    22 1   
    18     7    23 1   
    19     8     9 ar  
    20     8    24 1   
    21     9    10 ar  
    22    10    11 ar  
    23    10    14 1   
    24    11    12 ar  
    25    11    15 1   
    26    12    13 1   
@<TRIPOS>SUBSTRUCTURE
     1 8MO         1 TEMP              0 ****  ****    0 ROOT
