@<TRIPOS>MOLECULE
8MP
   36    36     1     0     0
SMALL
No Charge or Current Charge


@<TRIPOS>ATOM
      1 C9           3.8140    -0.1300     0.7010 c3         1 8MP      -0.157400
      2 N1          -1.6240    -2.2550     0.5990 n7         1 8MP      -0.871400
      3 C10          4.6390     0.2510    -0.5510 c3         1 8MP      -0.063400
      4 C2          -0.5850    -1.3560     1.1760 c3         1 8MP       0.144800
      5 N2           1.3740     0.0650     0.5260 ns         1 8MP      -0.498900
      6 C11          6.0030     0.8800    -0.2050 c3         1 8MP      -0.093100
      7 C3          -0.0210    -0.2820     0.1950 c3         1 8MP       0.089700
      8 C4          -0.9170     0.9980     0.1840 c3         1 8MP       0.169300
      9 O4          -0.2290     2.1120    -0.4140 oh         1 8MP      -0.716000
     10 C5          -2.2790     0.8300    -0.5480 c3         1 8MP       0.139300
     11 O5          -3.0110     2.0660    -0.4720 oh         1 8MP      -0.677000
     12 C6          -3.1850    -0.3010     0.0200 c3         1 8MP       0.135300
     13 O6          -4.5150    -0.1340    -0.5270 oh         1 8MP      -0.738000
     14 C7          -2.6350    -1.7150    -0.3480 c3         1 8MP       0.136800
     15 C8           2.4640    -0.7480     0.3190 c          1 8MP       0.600100
     16 O8           2.3610    -1.8870    -0.1120 o          1 8MP      -0.611100
     17 H16          4.3830    -0.8640     1.2820 hc         1 8MP       0.055700
     18 H13          3.6550     0.7750     1.3000 hc         1 8MP       0.055700
     19 H17          4.8040    -0.6430    -1.1660 hc         1 8MP       0.055200
     20 H01          4.0650     0.9570    -1.1640 hc         1 8MP       0.055200
     21 H03         -0.9860    -0.8370     2.0580 h1         1 8MP       0.056700
     22 H14          0.2430    -1.9730     1.5480 h1         1 8MP       0.056700
     23 H04          1.5610     1.0130     0.8300 hn         1 8MP       0.317500
     24 H19          5.8700     1.7990     0.3790 hc         1 8MP       0.032033
     25 H18          6.6150     0.1820     0.3800 hc         1 8MP       0.032033
     26 H20          6.5510     1.1320    -1.1200 hc         1 8MP       0.032033
     27 H05         -0.0080    -0.7060    -0.8180 h1         1 8MP       0.086700
     28 H06         -1.1370     1.2510     1.2310 h1         1 8MP       0.036700
     29 H07         -0.9540     2.7470    -0.6360 ho         1 8MP       0.524000
     30 H08         -2.0720     0.5950    -1.6010 h1         1 8MP       0.053700
     31 H09         -3.9500     1.7660    -0.5540 ho         1 8MP       0.473000
     32 H10         -3.2280    -0.2120     1.1150 h1         1 8MP       0.058700
     33 H11         -5.0910    -0.8220    -0.1140 ho         1 8MP       0.517000
     34 H12         -2.2100    -1.6680    -1.3600 h1         1 8MP       0.041200
     35 H15         -3.4750    -2.4210    -0.4000 h1         1 8MP       0.041200
     36 H1          -1.1530    -3.0470     0.1380 hn         1 8MP       0.429000
@<TRIPOS>BOND
     1     1     3 1   
     2     1    15 1   
     3     1    17 1   
     4     1    18 1   
     5     2     4 1   
     6     2    14 1   
     7     2    36 1   
     8     3     6 1   
     9     3    19 1   
    10     3    20 1   
    11     4     7 1   
    12     4    21 1   
    13     4    22 1   
    14     5     7 1   
    15     5    15 1   
    16     5    23 1   
    17     6    24 1   
    18     6    25 1   
    19     6    26 1   
    20     7     8 1   
    21     7    27 1   
    22     8     9 1   
    23     8    10 1   
    24     8    28 1   
    25     9    29 1   
    26    10    11 1   
    27    10    12 1   
    28    10    30 1   
    29    11    31 1   
    30    12    13 1   
    31    12    14 1   
    32    12    32 1   
    33    13    33 1   
    34    14    34 1   
    35    14    35 1   
    36    15    16 2   
@<TRIPOS>SUBSTRUCTURE
     1 8MP         1 TEMP              0 ****  ****    0 ROOT
