@<TRIPOS>MOLECULE
8MP
   36    36     1     0     0
SMALL
abcg2


@<TRIPOS>ATOM
      1 C9           3.6570     0.4030     0.2620 c3         1 8MP      -0.157400
      2 N1          -1.3990    -2.2770     0.2910 n7         1 8MP      -0.871400
      3 C10          4.9160    -0.1840    -0.3550 c3         1 8MP      -0.063400
      4 C2          -0.4310    -1.3300     0.7970 c3         1 8MP       0.144800
      5 N2           1.2500     0.3600     0.2290 ns         1 8MP      -0.498900
      6 C11          6.1730     0.4480     0.2290 c3         1 8MP      -0.093100
      7 C3          -0.0830    -0.1130    -0.0860 c3         1 8MP       0.089700
      8 C4          -1.0560     1.0390     0.1560 c3         1 8MP       0.169300
      9 O4          -0.5700     2.1700    -0.5310 oh         1 8MP      -0.716000
     10 C5          -2.4980     0.7730    -0.2750 c3         1 8MP       0.139300
     11 O5          -3.2050     1.9210     0.1450 oh         1 8MP      -0.677000
     12 C6          -3.1570    -0.4970     0.2680 c3         1 8MP       0.135300
     13 O6          -4.5210    -0.3640    -0.0920 oh         1 8MP      -0.738000
     14 C7          -2.5840    -1.7610    -0.3720 c3         1 8MP       0.136800
     15 C8           2.3690    -0.2010    -0.2630 c          1 8MP       0.600100
     16 O8           2.3450    -1.1230    -1.0680 o          1 8MP      -0.611100
     17 H16          3.6790     0.2710     1.3490 hc         1 8MP       0.055700
     18 H13          3.6300     1.4860     0.1020 hc         1 8MP       0.055700
     19 H17          4.9410    -1.2630    -0.1910 hc         1 8MP       0.055200
     20 H01          4.9030    -0.0380    -1.4370 hc         1 8MP       0.055200
     21 H03         -0.7480    -0.9600     1.7790 h1         1 8MP       0.056700
     22 H14          0.4850    -1.8920     0.9790 h1         1 8MP       0.056700
     23 H04          1.3460     1.0980     0.9080 hn         1 8MP       0.317500
     24 H19          6.1950     1.5250     0.0550 hc         1 8MP       0.032033
     25 H18          6.2310     0.2900     1.3080 hc         1 8MP       0.032033
     26 H20          7.0720     0.0220    -0.2160 hc         1 8MP       0.032033
     27 H05         -0.1000    -0.4070    -1.1400 h1         1 8MP       0.086700
     28 H06         -1.0700     1.2260     1.2430 h1         1 8MP       0.036700
     29 H07         -1.1880     2.8940    -0.3800 ho         1 8MP       0.524000
     30 H08         -2.5090     0.6940    -1.3760 h1         1 8MP       0.053700
     31 H09         -4.1330     1.7960    -0.0820 ho         1 8MP       0.473000
     32 H10         -3.0510    -0.5440     1.3610 h1         1 8MP       0.058700
     33 H11         -5.0320    -1.0310     0.3760 ho         1 8MP       0.517000
     34 H12         -2.4250    -1.5560    -1.4410 h1         1 8MP       0.041200
     35 H15         -3.3540    -2.5370    -0.3290 h1         1 8MP       0.041200
     36 H1          -0.9380    -2.9230    -0.3330 hn         1 8MP       0.429000
@<TRIPOS>BOND
     1     1     3 1   
     2     1    15 1   
     3     1    17 1   
     4     1    18 1   
     5     2     4 1   
     6     2    14 1   
     7     2    36 1   
     8     3     6 1   
     9     3    19 1   
    10     3    20 1   
    11     4     7 1   
    12     4    21 1   
    13     4    22 1   
    14     5     7 1   
    15     5    15 1   
    16     5    23 1   
    17     6    24 1   
    18     6    25 1   
    19     6    26 1   
    20     7     8 1   
    21     7    27 1   
    22     8     9 1   
    23     8    10 1   
    24     8    28 1   
    25     9    29 1   
    26    10    11 1   
    27    10    12 1   
    28    10    30 1   
    29    11    31 1   
    30    12    13 1   
    31    12    14 1   
    32    12    32 1   
    33    13    33 1   
    34    14    34 1   
    35    14    35 1   
    36    15    16 2   
@<TRIPOS>SUBSTRUCTURE
     1 8MP         1 TEMP              0 ****  ****    0 ROOT
