@<TRIPOS>MOLECULE
8MQ
   42    44     1     0     0
SMALL
No Charge or Current Charge


@<TRIPOS>ATOM
      1 C4          -1.6700     1.6100    -0.7950 cc         1 8MQ      -0.108100
      2 C5          -3.6900     0.5330    -0.6770 ca         1 8MQ      -0.066200
      3 C6          -2.8360    -0.1990     0.1030 ca         1 8MQ      -0.053800
      4 C7          -3.2620    -1.3560     0.7760 ca         1 8MQ      -0.052000
      5 C8          -4.6100    -1.7460     0.6250 ca         1 8MQ      -0.135000
      6 C9          -5.4920    -0.9870    -0.1810 ca         1 8MQ      -0.093000
      7 C10         -5.0320     0.1700    -0.8450 ca         1 8MQ      -0.126000
      8 O           -0.2800    -0.9140     1.4590 o          1 8MQ      -0.513100
      9 C2          -0.2950     0.0700     0.7230 c          1 8MQ       0.603300
     10 C1           1.0090     0.9280     0.4990 c3         1 8MQ       0.100500
     11 C3          -1.5570     0.4860     0.0250 cd         1 8MQ      -0.243400
     12 N           -3.0140     1.6120    -1.2190 na         1 8MQ      -0.209700
     13 H1          -0.9580     2.3740    -1.0960 h4         1 8MQ       0.214000
     14 H2          -2.5860    -1.9400     1.3950 ha         1 8MQ       0.139000
     15 H3          -4.9740    -2.6370     1.1330 ha         1 8MQ       0.114000
     16 H4          -6.5290    -1.2970    -0.2900 ha         1 8MQ       0.111000
     17 H5          -5.7010     0.7600    -1.4670 ha         1 8MQ       0.113000
     18 H6           0.8880     1.4010    -0.4820 h1         1 8MQ       0.017700
     19 H9          -3.4310     2.3060    -1.8330 hn         1 8MQ       0.352000
     20 C11          0.9720     2.0810     1.5410 c3         1 8MQ      -0.092100
     21 N1           2.3260     0.1730     0.4420 n3         1 8MQ      -0.710600
     22 C14          2.2610    -0.9360    -0.5590 c3         1 8MQ       0.177300
     23 C12          3.4760    -1.8890    -0.6600 c3         1 8MQ      -0.072400
     24 C15          4.6960    -1.2690    -1.3750 c3         1 8MQ      -0.070400
     25 C16          5.5860    -0.3690    -0.4930 c3         1 8MQ      -0.070400
     26 C17          4.8670     0.3850     0.6470 c3         1 8MQ      -0.072400
     27 C18          3.5240     1.0530     0.2780 c3         1 8MQ       0.177300
     28 H7           1.2880     1.7220     2.5270 hc         1 8MQ       0.045700
     29 H8           1.6130     2.9180     1.2440 hc         1 8MQ       0.045700
     30 H10         -0.0440     2.4830     1.6370 hc         1 8MQ       0.045700
     31 H11          1.4020    -1.5790    -0.3310 h1         1 8MQ       0.026450
     32 H12          2.0700    -0.5170    -1.5560 h1         1 8MQ       0.026450
     33 H13          3.7520    -2.2670     0.3310 hc         1 8MQ       0.047950
     34 H14          3.1570    -2.7620    -1.2420 hc         1 8MQ       0.047950
     35 H15          5.3200    -2.0760    -1.7810 hc         1 8MQ       0.033700
     36 H16          4.3470    -0.6940    -2.2410 hc         1 8MQ       0.033700
     37 H17          6.3780    -0.9830    -0.0460 hc         1 8MQ       0.033700
     38 H18          6.0930     0.3580    -1.1400 hc         1 8MQ       0.033700
     39 H19          4.7080    -0.2910     1.4970 hc         1 8MQ       0.047950
     40 H20          5.5490     1.1630     1.0110 hc         1 8MQ       0.047950
     41 H21          3.5760     1.4590    -0.7410 h1         1 8MQ       0.026450
     42 H22          3.4510     1.9120     0.9530 h1         1 8MQ       0.026450
@<TRIPOS>BOND
     1     1    11 2   
     2     1    12 1   
     3     1    13 1   
     4     2     3 ar  
     5     2     7 ar  
     6     2    12 1   
     7     3     4 ar  
     8     3    11 1   
     9     4     5 ar  
    10     4    14 1   
    11     5     6 ar  
    12     5    15 1   
    13     6     7 ar  
    14     6    16 1   
    15     7    17 1   
    16     8     9 2   
    17     9    10 1   
    18     9    11 1   
    19    10    18 1   
    20    10    20 1   
    21    10    21 1   
    22    12    19 1   
    23    20    28 1   
    24    20    29 1   
    25    20    30 1   
    26    21    22 1   
    27    21    27 1   
    28    22    23 1   
    29    22    31 1   
    30    22    32 1   
    31    23    24 1   
    32    23    33 1   
    33    23    34 1   
    34    24    25 1   
    35    24    35 1   
    36    24    36 1   
    37    25    26 1   
    38    25    37 1   
    39    25    38 1   
    40    26    27 1   
    41    26    39 1   
    42    26    40 1   
    43    27    41 1   
    44    27    42 1   
@<TRIPOS>SUBSTRUCTURE
     1 8MQ         1 TEMP              0 ****  ****    0 ROOT
