@<TRIPOS>MOLECULE
8MQ
   42    44     1     0     0
SMALL
bcc


@<TRIPOS>ATOM
      1 C4          -1.6030     1.3050    -1.0780 cc         1 8MQ      -0.058100
      2 C5          -3.5730     0.3180    -0.7590 ca         1 8MQ      -0.066200
      3 C6          -2.6770    -0.2300     0.1790 ca         1 8MQ      -0.053800
      4 C7          -3.1470    -1.2100     1.0610 ca         1 8MQ      -0.070000
      5 C8          -4.4700    -1.6010     0.9780 ca         1 8MQ      -0.153000
      6 C9          -5.3410    -1.0400     0.0330 ca         1 8MQ      -0.111000
      7 C10         -4.9050    -0.0710    -0.8510 ca         1 8MQ      -0.144000
      8 O           -0.1140    -0.6850     1.5550 o          1 8MQ      -0.513100
      9 C2          -0.1750     0.1720     0.6910 c          1 8MQ       0.603300
     10 C1           1.0360     1.0680     0.4090 c3         1 8MQ       0.100500
     11 C3          -1.4060     0.4170    -0.0370 cd         1 8MQ      -0.243400
     12 N           -2.8790     1.2440    -1.4980 na         1 8MQ      -0.159400
     13 H1          -0.9110     1.9800    -1.5540 h4         1 8MQ       0.164000
     14 H2          -2.4910    -1.6550     1.7940 ha         1 8MQ       0.157000
     15 H3          -4.8450    -2.3590     1.6550 ha         1 8MQ       0.132000
     16 H4          -6.3710    -1.3710    -0.0060 ha         1 8MQ       0.129000
     17 H5          -5.5710     0.3670    -1.5830 ha         1 8MQ       0.131000
     18 H6           0.8800     1.6090    -0.5380 h1         1 8MQ       0.017700
     19 H9          -3.2600     1.7940    -2.2520 hn         1 8MQ       0.301700
     20 C11          1.0390     2.1140     1.5280 c3         1 8MQ      -0.092100
     21 N1           2.2360     0.2470     0.3360 n3         1 8MQ      -0.710600
     22 C14          2.1650    -0.5860    -0.8540 c3         1 8MQ       0.177300
     23 C12          3.2550    -1.6410    -1.0150 c3         1 8MQ      -0.072400
     24 C15          4.6140    -1.0820    -1.4270 c3         1 8MQ      -0.070400
     25 C16          5.4590    -0.5360    -0.2770 c3         1 8MQ      -0.070400
     26 C17          4.6670     0.1180     0.8540 c3         1 8MQ      -0.072400
     27 C18          3.4820     0.9940     0.4470 c3         1 8MQ       0.177300
     28 H7           1.3390     1.6730     2.4790 hc         1 8MQ       0.045700
     29 H8           1.7000     2.9490     1.3050 hc         1 8MQ       0.045700
     30 H10          0.0380     2.5300     1.6490 hc         1 8MQ       0.045700
     31 H11          1.2070    -1.1120    -0.8440 h1         1 8MQ       0.026450
     32 H12          2.1580     0.0350    -1.7690 h1         1 8MQ       0.026450
     33 H13          3.3290    -2.2500    -0.1100 hc         1 8MQ       0.047950
     34 H14          2.9060    -2.3150    -1.8020 hc         1 8MQ       0.047950
     35 H15          5.1870    -1.8540    -1.9470 hc         1 8MQ       0.033700
     36 H16          4.4420    -0.2970    -2.1700 hc         1 8MQ       0.033700
     37 H17          6.0560    -1.3440     0.1540 hc         1 8MQ       0.033700
     38 H18          6.1790     0.1800    -0.6830 hc         1 8MQ       0.033700
     39 H19          4.2870    -0.6450     1.5380 hc         1 8MQ       0.047950
     40 H20          5.3590     0.7250     1.4440 hc         1 8MQ       0.047950
     41 H21          3.7120     1.5610    -0.4720 h1         1 8MQ       0.026450
     42 H22          3.3570     1.7360     1.2320 h1         1 8MQ       0.026450
@<TRIPOS>BOND
     1     1    11 2   
     2     1    12 1   
     3     1    13 1   
     4     2     3 ar  
     5     2     7 ar  
     6     2    12 1   
     7     3     4 ar  
     8     3    11 1   
     9     4     5 ar  
    10     4    14 1   
    11     5     6 ar  
    12     5    15 1   
    13     6     7 ar  
    14     6    16 1   
    15     7    17 1   
    16     8     9 2   
    17     9    10 1   
    18     9    11 1   
    19    10    18 1   
    20    10    20 1   
    21    10    21 1   
    22    12    19 1   
    23    20    28 1   
    24    20    29 1   
    25    20    30 1   
    26    21    22 1   
    27    21    27 1   
    28    22    23 1   
    29    22    31 1   
    30    22    32 1   
    31    23    24 1   
    32    23    33 1   
    33    23    34 1   
    34    24    25 1   
    35    24    35 1   
    36    24    36 1   
    37    25    26 1   
    38    25    37 1   
    39    25    38 1   
    40    26    27 1   
    41    26    39 1   
    42    26    40 1   
    43    27    41 1   
    44    27    42 1   
@<TRIPOS>SUBSTRUCTURE
     1 8MQ         1 TEMP              0 ****  ****    0 ROOT
