@<TRIPOS>MOLECULE
8MR
   30    30     1     0     0
SMALL
No Charge or Current Charge


@<TRIPOS>ATOM
      1 CAI         -0.3990     6.2370     1.1240 c3         1 8MR       0.150900
      2 OAH         -1.4260     5.7590     0.2370 os         1 8MR      -0.342100
      3 CAG         -1.7480     4.4210     0.1390 ca         1 8MR       0.181100
      4 CAQ         -1.1000     3.4240     0.8980 ca         1 8MR      -0.200000
      5 CAP         -1.4710     2.0760     0.7560 ca         1 8MR       0.029000
      6 CAF         -2.7640     4.0570    -0.7570 ca         1 8MR      -0.200000
      7 CAE         -3.1400     2.7120    -0.9040 ca         1 8MR       0.029000
      8 CAO         -2.4920     1.7180    -0.1450 ca         1 8MR      -0.289500
      9 SAN         -2.9550    -0.0160    -0.3280 sy         1 8MR       1.015500
     10 OAS         -2.7860    -0.6570     0.9830 o          1 8MR      -0.536000
     11 OAD         -4.2400    -0.0780    -1.0380 o          1 8MR      -0.536000
     12 CAM         -1.6650    -0.6950    -1.4370 c3         1 8MR      -0.258700
     13 CAB         -1.8090    -2.2310    -1.6270 c3         1 8MR       0.192300
     14 FA          -3.0220    -2.5510    -2.1350 f          1 8MR      -0.132000
     15 FB          -1.6800    -2.8800    -0.4470 f          1 8MR      -0.132000
     16 CAL         -1.5630     0.0840    -2.8010 c3         1 8MR      -0.210400
     17 CAK         -0.3820    -0.3970    -3.6650 c          1 8MR       0.724000
     18 OAR          0.7170     0.0910    -3.4540 o          1 8MR      -0.723000
     19 OAJ         -0.5840    -1.2880    -4.4750 o          1 8MR      -0.723000
     20 HAI1        -0.3060     7.3270     1.0440 h1         1 8MR       0.040033
     21 HAI2         0.5730     5.7940     0.8710 h1         1 8MR       0.040033
     22 HAI3        -0.6390     5.9910     2.1660 h1         1 8MR       0.040033
     23 HAQ         -0.3100     3.6730     1.6000 ha         1 8MR       0.119000
     24 HAP         -0.9610     1.3160     1.3470 ha         1 8MR       0.137500
     25 HAF         -3.2640     4.8230    -1.3440 ha         1 8MR       0.119000
     26 HAE         -3.9280     2.4500    -1.6090 ha         1 8MR       0.137500
     27 HAM         -0.7320    -0.5250    -0.8900 h1         1 8MR       0.122700
     28 HAB         -1.0360    -2.6090    -2.3050 h2         1 8MR       0.111700
     29 HAL1        -2.5070    -0.0830    -3.3340 hc         1 8MR       0.046700
     30 HAL2        -1.3920     1.1340    -2.5380 hc         1 8MR       0.046700
@<TRIPOS>BOND
     1     1     2 1   
     2     1    20 1   
     3     1    21 1   
     4     1    22 1   
     5     2     3 1   
     6     3     4 ar  
     7     3     6 ar  
     8     4     5 ar  
     9     4    23 1   
    10     5     8 ar  
    11     5    24 1   
    12     6     7 ar  
    13     6    25 1   
    14     7     8 ar  
    15     7    26 1   
    16     8     9 1   
    17     9    10 2   
    18     9    11 2   
    19     9    12 1   
    20    12    13 1   
    21    12    16 1   
    22    12    27 1   
    23    13    14 1   
    24    13    15 1   
    25    13    28 1   
    26    16    17 1   
    27    16    29 1   
    28    16    30 1   
    29    17    18 1   
    30    17    19 1   
@<TRIPOS>SUBSTRUCTURE
     1 8MR         1 TEMP              0 ****  ****    0 ROOT
