@<TRIPOS>MOLECULE
8MR
   30    30     1     0     0
SMALL
abcg2


@<TRIPOS>ATOM
      1 CAI         -0.4410     6.1280     1.1690 c3         1 8MR       0.150900
      2 OAH         -1.4060     5.7100     0.2180 os         1 8MR      -0.342100
      3 CAG         -1.6980     4.4110     0.1200 ca         1 8MR       0.181100
      4 CAQ         -1.1050     3.4130     0.8970 ca         1 8MR      -0.200000
      5 CAP         -1.4840     2.0930     0.7270 ca         1 8MR       0.029000
      6 CAF         -2.6660     4.0650    -0.8290 ca         1 8MR      -0.200000
      7 CAE         -3.0390     2.7480    -0.9970 ca         1 8MR       0.029000
      8 CAO         -2.4430     1.7600    -0.2180 ca         1 8MR      -0.289500
      9 SAN         -2.9290     0.0720    -0.3940 sy         1 8MR       1.015500
     10 OAS         -2.8600    -0.5570     0.9230 o          1 8MR      -0.536000
     11 OAD         -4.1960     0.0370    -1.1220 o          1 8MR      -0.536000
     12 CAM         -1.6150    -0.6250    -1.4450 c3         1 8MR      -0.258700
     13 CAB         -1.6120    -2.1410    -1.3620 c3         1 8MR       0.192300
     14 FA          -2.8790    -2.6310    -1.4790 f          1 8MR      -0.132000
     15 FB          -1.1350    -2.5740    -0.1670 f          1 8MR      -0.132000
     16 CAL         -1.7570    -0.1310    -2.8770 c3         1 8MR      -0.210400
     17 CAK         -0.5060    -0.3900    -3.7520 c          1 8MR       0.724000
     18 OAR          0.4990    -0.8630    -3.1890 o          1 8MR      -0.723000
     19 OAJ         -0.6280    -0.0800    -4.9490 o          1 8MR      -0.723000
     20 HAI1        -0.3710     7.2090     1.0790 h1         1 8MR       0.040033
     21 HAI2         0.5400     5.6920     0.9680 h1         1 8MR       0.040033
     22 HAI3        -0.7420     5.8760     2.1880 h1         1 8MR       0.040033
     23 HAQ         -0.3550     3.6430     1.6410 ha         1 8MR       0.119000
     24 HAP         -1.0220     1.3330     1.3430 ha         1 8MR       0.137500
     25 HAF         -3.1250     4.8390    -1.4290 ha         1 8MR       0.119000
     26 HAE         -3.7950     2.5010    -1.7300 ha         1 8MR       0.137500
     27 HAM         -0.6770    -0.2630    -1.0180 h1         1 8MR       0.122700
     28 HAB         -1.0000    -2.5720    -2.1520 h2         1 8MR       0.111700
     29 HAL1        -2.6360    -0.5740    -3.3500 hc         1 8MR       0.046700
     30 HAL2        -1.9300     0.9490    -2.8840 hc         1 8MR       0.046700
@<TRIPOS>BOND
     1     1     2 1   
     2     1    20 1   
     3     1    21 1   
     4     1    22 1   
     5     2     3 1   
     6     3     4 ar  
     7     3     6 ar  
     8     4     5 ar  
     9     4    23 1   
    10     5     8 ar  
    11     5    24 1   
    12     6     7 ar  
    13     6    25 1   
    14     7     8 ar  
    15     7    26 1   
    16     8     9 1   
    17     9    10 2   
    18     9    11 2   
    19     9    12 1   
    20    12    13 1   
    21    12    16 1   
    22    12    27 1   
    23    13    14 1   
    24    13    15 1   
    25    13    28 1   
    26    16    17 1   
    27    16    29 1   
    28    16    30 1   
    29    17    18 1   
    30    17    19 1   
@<TRIPOS>SUBSTRUCTURE
     1 8MR         1 TEMP              0 ****  ****    0 ROOT
