@<TRIPOS>MOLECULE
8MS
   63    63     1     0     0
SMALL
bcc


@<TRIPOS>ATOM
      1 C10         33.6570    20.5340   -17.7020 c3         1 8MS       0.433600
      2 C13         30.7890    18.7560   -16.0320 c3         1 8MS       0.139400
      3 C17         28.8980    16.5940   -18.2980 c3         1 8MS       0.135400
      4 C20         29.5060    15.0720   -20.8310 c3         1 8MS       0.100400
      5 C22         28.1810    13.3930   -21.8990 c3         1 8MS       0.133400
      6 C24         26.8290    11.3120   -21.4320 c3         1 8MS      -0.074400
      7 C26         25.5100     9.1580   -21.0060 c3         1 8MS      -0.073400
      8 C01         32.9130    21.2490   -21.3630 ca         1 8MS      -0.177000
      9 C02         33.7110    22.3650   -21.6400 ca         1 8MS       0.160600
     10 C03         34.4830    22.8900   -20.6030 ca         1 8MS      -0.177000
     11 C04         34.4610    22.3080   -19.3430 ca         1 8MS      -0.076500
     12 C05         33.6690    21.2000   -19.0610 ca         1 8MS      -0.124300
     13 C06         32.8980    20.6830   -20.1020 ca         1 8MS      -0.076500
     14 C16         29.2040    17.3570   -17.0340 c3         1 8MS       0.136400
     15 C19         29.4520    14.5640   -19.3880 c3         1 8MS       0.097400
     16 C23         28.1650    12.0200   -21.2440 c3         1 8MS      -0.107400
     17 C25         26.8030     9.9340   -20.7790 c3         1 8MS      -0.073400
     18 C27         24.2850     9.7940   -20.3600 c3         1 8MS      -0.089100
     19 N07         33.7500    22.8680   -22.9320 nu         1 8MS      -0.499400
     20 N08         34.2130    24.1620   -23.0980 n7         1 8MS      -0.322800
     21 N09         33.2060    25.1270   -22.8940 n8         1 8MS      -0.705600
     22 N11         32.3250    20.1080   -17.3830 n7         1 8MS      -0.840200
     23 O14         34.2340    21.4260   -16.7680 oh         1 8MS      -0.627800
     24 O15         30.4750    17.9430   -17.1330 os         1 8MS      -0.379600
     25 O18         29.8230    15.5430   -18.4500 os         1 8MS      -0.391600
     26 O21         29.4340    14.0390   -21.7810 os         1 8MS      -0.405600
     27 H1          34.2680    19.6200   -17.7470 h2         1 8MS       0.049700
     28 H2          30.0660    19.5820   -15.9420 h1         1 8MS       0.018700
     29 H3          30.7360    18.1900   -15.0920 h1         1 8MS       0.018700
     30 H4          28.9220    17.2800   -19.1540 h1         1 8MS       0.029700
     31 H5          27.8720    16.2090   -18.2240 h1         1 8MS       0.029700
     32 H6          30.4640    15.5750   -20.9890 h1         1 8MS       0.051700
     33 H7          28.7160    15.8140   -21.0070 h1         1 8MS       0.051700
     34 H8          27.3780    14.0170   -21.4840 h1         1 8MS       0.037700
     35 H9          27.9690    13.2810   -22.9680 h1         1 8MS       0.037700
     36 H10         26.6140    11.2080   -22.5010 hc         1 8MS       0.037200
     37 H11         26.0300    11.9370   -21.0200 hc         1 8MS       0.037200
     38 H12         25.6330     8.1450   -20.6130 hc         1 8MS       0.037200
     39 H13         25.3410     9.0450   -22.0810 hc         1 8MS       0.037200
     40 H14         32.2960    20.8240   -22.1480 ha         1 8MS       0.135500
     41 H15         35.1060    23.7550   -20.7790 ha         1 8MS       0.135500
     42 H16         35.0800    22.7440   -18.5700 ha         1 8MS       0.144000
     43 H17         32.2630    19.8250   -19.9200 ha         1 8MS       0.144000
     44 H18         32.9010    18.4800   -16.2360 h1         1 8MS       0.034700
     45 H19         32.4210    19.8570   -15.2560 h1         1 8MS       0.034700
     46 H20         28.4230    18.1190   -16.9020 h1         1 8MS       0.025200
     47 H21         29.1440    16.6860   -16.1650 h1         1 8MS       0.025200
     48 H22         28.4510    14.1730   -19.1570 h1         1 8MS       0.048700
     49 H23         30.1600    13.7400   -19.2750 h1         1 8MS       0.048700
     50 H24         28.3770    12.1120   -20.1750 hc         1 8MS       0.047700
     51 H25         28.9670    11.4100   -21.6700 hc         1 8MS       0.047700
     52 H26         26.9780    10.0410   -19.7030 hc         1 8MS       0.038200
     53 H27         27.6430     9.3480   -21.1650 hc         1 8MS       0.038200
     54 H28         23.3980     9.1760   -20.5030 hc         1 8MS       0.031033
     55 H29         24.4300     9.9190   -19.2850 hc         1 8MS       0.031033
     56 H30         24.0660    10.7770   -20.7790 hc         1 8MS       0.031033
     57 H31         32.9310    22.6350   -23.4840 hn         1 8MS       0.380800
     58 H32         34.6020    24.2200   -24.0300 hn         1 8MS       0.353800
     59 H33         33.6480    25.9690   -22.5500 hn         1 8MS       0.344300
     60 H34         32.7430    25.3630   -23.7660 hn         1 8MS       0.344300
     61 H35         31.6960    20.9030   -17.3630 hn         1 8MS       0.373800
     62 H37         34.5520    20.9220   -16.0130 ho         1 8MS       0.400000
     63 C12         32.1890    19.3110   -16.1820 c3         1 8MS       0.171800
@<TRIPOS>BOND
     1     1    12 1   
     2     1    22 1   
     3     1    23 1   
     4     1    27 1   
     5     2    24 1   
     6     2    28 1   
     7     2    29 1   
     8     2    63 1   
     9     3    14 1   
    10     3    25 1   
    11     3    30 1   
    12     3    31 1   
    13     4    15 1   
    14     4    26 1   
    15     4    32 1   
    16     4    33 1   
    17     5    16 1   
    18     5    26 1   
    19     5    34 1   
    20     5    35 1   
    21     6    16 1   
    22     6    17 1   
    23     6    36 1   
    24     6    37 1   
    25     7    17 1   
    26     7    18 1   
    27     7    38 1   
    28     7    39 1   
    29     8     9 ar  
    30     8    13 ar  
    31     8    40 1   
    32     9    10 ar  
    33     9    19 1   
    34    10    11 ar  
    35    10    41 1   
    36    11    12 ar  
    37    11    42 1   
    38    12    13 ar  
    39    13    43 1   
    40    14    24 1   
    41    14    46 1   
    42    14    47 1   
    43    15    25 1   
    44    15    48 1   
    45    15    49 1   
    46    16    50 1   
    47    16    51 1   
    48    17    52 1   
    49    17    53 1   
    50    18    54 1   
    51    18    55 1   
    52    18    56 1   
    53    19    20 1   
    54    19    57 1   
    55    20    21 1   
    56    20    58 1   
    57    21    59 1   
    58    21    60 1   
    59    22    61 1   
    60    22    63 1   
    61    23    62 1   
    62    44    63 1   
    63    45    63 1   
@<TRIPOS>SUBSTRUCTURE
     1 8MS         1 TEMP              0 ****  ****    0 ROOT
