@<TRIPOS>MOLECULE
8MS
   63    63     1     0     0
SMALL
No Charge or Current Charge


@<TRIPOS>ATOM
      1 C10         34.0330    20.4820   -17.7610 c3         1 8MS       0.456800
      2 C13         31.1940    18.6980   -15.8400 c3         1 8MS       0.162600
      3 C17         28.8990    16.5740   -17.9330 c3         1 8MS       0.158600
      4 C20         29.8370    14.8370   -20.2610 c3         1 8MS       0.123600
      5 C22         28.4800    13.3690   -21.7030 c3         1 8MS       0.156600
      6 C24         26.7730    11.4510   -21.5460 c3         1 8MS      -0.074400
      7 C26         25.1000     9.4640   -21.4280 c3         1 8MS      -0.073400
      8 C01         34.4050    21.2370   -21.5050 ca         1 8MS      -0.159000
      9 C02         33.8020    22.5020   -21.6250 ca         1 8MS       0.299000
     10 C03         33.2680    23.1140   -20.4710 ca         1 8MS      -0.159000
     11 C04         33.3380    22.4700   -19.2230 ca         1 8MS      -0.058500
     12 C05         33.9460    21.2010   -19.1050 ca         1 8MS      -0.124300
     13 C06         34.4770    20.5900   -20.2580 ca         1 8MS      -0.058500
     14 C16         29.3200    17.4390   -16.7210 c3         1 8MS       0.159600
     15 C19         29.2640    14.3520   -18.9020 c3         1 8MS       0.120600
     16 C23         28.1360    12.0010   -21.0720 c3         1 8MS      -0.107400
     17 C25         26.4240    10.0820   -20.9180 c3         1 8MS      -0.073400
     18 C27         23.8360    10.2650   -21.0520 c3         1 8MS      -0.089100
     19 N07         33.7580    23.1150   -22.8940 nu         1 8MS      -0.693000
     20 N08         33.1800    24.3920   -23.1090 n7         1 8MS      -0.378000
     21 N09         32.0870    24.1500   -24.0040 n8         1 8MS      -0.816000
     22 N11         32.7220    20.0600   -17.3320 n7         1 8MS      -0.895400
     23 O14         34.4910    21.3620   -16.7620 oh         1 8MS      -0.690000
     24 O15         30.6760    17.8870   -16.9130 os         1 8MS      -0.426000
     25 O18         29.5840    15.3030   -17.8620 os         1 8MS      -0.438000
     26 O21         29.7880    13.7780   -21.2490 os         1 8MS      -0.452000
     27 H1          34.7180    19.6260   -17.8350 h2         1 8MS       0.049700
     28 H2          30.5720    19.5910   -15.6900 h1         1 8MS       0.018700
     29 H3          31.2000    18.1260   -14.9030 h1         1 8MS       0.018700
     30 H4          29.1390    17.1110   -18.8590 h1         1 8MS       0.029700
     31 H5          27.8120    16.4210   -17.8970 h1         1 8MS       0.029700
     32 H6          30.8790    15.1470   -20.1070 h1         1 8MS       0.051700
     33 H7          29.2770    15.7140   -20.6130 h1         1 8MS       0.051700
     34 H8          27.7110    14.1100   -21.4450 h1         1 8MS       0.037700
     35 H9          28.4850    13.2610   -22.7950 h1         1 8MS       0.037700
     36 H10         26.7840    11.3550   -22.6390 hc         1 8MS       0.037200
     37 H11         25.9930    12.1800   -21.2950 hc         1 8MS       0.037200
     38 H12         25.0060     8.4530   -21.0130 hc         1 8MS       0.037200
     39 H13         25.1460     9.3510   -22.5180 hc         1 8MS       0.037200
     40 H14         34.8210    20.7500   -22.3830 ha         1 8MS       0.117500
     41 H15         32.7960    24.0890   -20.5350 ha         1 8MS       0.117500
     42 H16         32.9220    22.9590   -18.3450 ha         1 8MS       0.126000
     43 H17         34.9460    19.6110   -20.1890 ha         1 8MS       0.126000
     44 H18         33.2420    18.2240   -16.3730 h1         1 8MS       0.034700
     45 H19         33.0720    19.6010   -15.2760 h1         1 8MS       0.034700
     46 H20         28.6430    18.3010   -16.6490 h1         1 8MS       0.025200
     47 H21         29.2240    16.8520   -15.7990 h1         1 8MS       0.025200
     48 H22         28.1770    14.2150   -18.9780 h1         1 8MS       0.048700
     49 H23         29.7130    13.3800   -18.6600 h1         1 8MS       0.048700
     50 H24         28.1230    12.0820   -19.9800 hc         1 8MS       0.047700
     51 H25         28.9240    11.2830   -21.3310 hc         1 8MS       0.047700
     52 H26         26.3780    10.1830   -19.8270 hc         1 8MS       0.038200
     53 H27         27.2380     9.3780   -21.1330 hc         1 8MS       0.038200
     54 H28         22.9360     9.7250   -21.3720 hc         1 8MS       0.031033
     55 H29         23.7780    10.4130   -19.9670 hc         1 8MS       0.031033
     56 H30         23.8300    11.2460   -21.5400 hc         1 8MS       0.031033
     57 H31         34.1720    22.6050   -23.6820 hn         1 8MS       0.436000
     58 H32         33.8280    25.1800   -23.3520 hn         1 8MS       0.409000
     59 H33         31.2620    24.7280   -23.7800 hn         1 8MS       0.399500
     60 H34         32.3290    24.3330   -24.9900 hn         1 8MS       0.399500
     61 H35         32.2010    20.9130   -17.1140 hn         1 8MS       0.429000
     62 H37         34.6030    20.8060   -15.9660 ho         1 8MS       0.439000
     63 C12         32.6500    19.1280   -16.1740 c3         1 8MS       0.171800
@<TRIPOS>BOND
     1     1    12 1   
     2     1    22 1   
     3     1    23 1   
     4     1    27 1   
     5     2    24 1   
     6     2    28 1   
     7     2    29 1   
     8     2    63 1   
     9     3    14 1   
    10     3    25 1   
    11     3    30 1   
    12     3    31 1   
    13     4    15 1   
    14     4    26 1   
    15     4    32 1   
    16     4    33 1   
    17     5    16 1   
    18     5    26 1   
    19     5    34 1   
    20     5    35 1   
    21     6    16 1   
    22     6    17 1   
    23     6    36 1   
    24     6    37 1   
    25     7    17 1   
    26     7    18 1   
    27     7    38 1   
    28     7    39 1   
    29     8     9 ar  
    30     8    13 ar  
    31     8    40 1   
    32     9    10 ar  
    33     9    19 1   
    34    10    11 ar  
    35    10    41 1   
    36    11    12 ar  
    37    11    42 1   
    38    12    13 ar  
    39    13    43 1   
    40    14    24 1   
    41    14    46 1   
    42    14    47 1   
    43    15    25 1   
    44    15    48 1   
    45    15    49 1   
    46    16    50 1   
    47    16    51 1   
    48    17    52 1   
    49    17    53 1   
    50    18    54 1   
    51    18    55 1   
    52    18    56 1   
    53    19    20 1   
    54    19    57 1   
    55    20    21 1   
    56    20    58 1   
    57    21    59 1   
    58    21    60 1   
    59    22    61 1   
    60    22    63 1   
    61    23    62 1   
    62    44    63 1   
    63    45    63 1   
@<TRIPOS>SUBSTRUCTURE
     1 8MS         1 TEMP              0 ****  ****    0 ROOT
