@<TRIPOS>MOLECULE
8MT
   15    15     1     0     0
SMALL
bcc


@<TRIPOS>ATOM
      1 C2           0.9370    -1.2230     0.0870 cc         1 8MT      -0.058000
      2 C1           1.8960    -0.2620    -0.0370 cd         1 8MT      -0.144700
      3 N1           4.1640     0.5140    -0.1130 ns         1 8MT      -0.474300
      4 C4          -0.3870     0.6690    -0.0780 cd         1 8MT      -0.002000
      5 C3          -0.3730    -0.6880     0.0650 cc         1 8MT      -0.036900
      6 BR1         -1.8600     1.7790    -0.1630 br         1 8MT       0.001900
      7 BR          -1.9060    -1.7330     0.2140 br         1 8MT      -0.028100
      8 S            1.1960     1.3080    -0.1860 ss         1 8MT      -0.018800
      9 C            3.3530    -0.5570    -0.0470 c          1 8MT       0.732700
     10 O            3.7320    -1.7130     0.0050 o          1 8MT      -0.546100
     11 N            5.5360     0.3540    -0.1330 n8         1 8MT      -0.607800
     12 H1           1.1560    -2.2750     0.1910 ha         1 8MT       0.190000
     13 H2           3.7910     1.4530    -0.1390 hn         1 8MT       0.298500
     14 H3           5.9050     0.7700    -0.9780 hn         1 8MT       0.346300
     15 H4           5.9370     0.8460     0.6550 hn         1 8MT       0.346300
@<TRIPOS>BOND
     1     1     2 2   
     2     1     5 1   
     3     1    12 1   
     4     2     8 1   
     5     2     9 1   
     6     3     9 1   
     7     3    11 1   
     8     3    13 1   
     9     4     5 2   
    10     4     6 1   
    11     4     8 1   
    12     5     7 1   
    13     9    10 2   
    14    11    14 1   
    15    11    15 1   
@<TRIPOS>SUBSTRUCTURE
     1 8MT         1 TEMP              0 ****  ****    0 ROOT
