@<TRIPOS>MOLECULE
8MT
   15    15     1     0     0
SMALL
No Charge or Current Charge


@<TRIPOS>ATOM
      1 C2           0.8940    -1.2390     0.0780 cc         1 8MT      -0.040000
      2 C1           1.8950    -0.2990    -0.0180 cd         1 8MT      -0.289600
      3 N1           4.1760     0.4760    -0.1200 ns         1 8MT      -0.407300
      4 C4          -0.4070     0.6700    -0.0620 cd         1 8MT      -0.146900
      5 C3          -0.4170    -0.6960     0.0530 cc         1 8MT      -0.036900
      6 Br1         -1.8880     1.8390    -0.1370 br         1 8MT       0.001900
      7 Br          -1.9820    -1.7460     0.1670 br         1 8MT      -0.028100
      8 S            1.2300     1.3400    -0.1450 ss         1 8MT       0.271000
      9 C            3.3360    -0.6360    -0.0130 c          1 8MT       0.665700
     10 O            3.7590    -1.7810     0.0770 o          1 8MT      -0.546100
     11 N            5.6390     0.4310    -0.1400 n8         1 8MT      -0.718200
     12 H1           1.0670    -2.3090     0.1650 ha         1 8MT       0.172000
     13 H2           3.7120     1.3810    -0.1890 hn         1 8MT       0.298500
     14 H3           6.0190     0.8360    -1.0100 hn         1 8MT       0.401500
     15 H4           6.0450     0.9750     0.6370 hn         1 8MT       0.401500
@<TRIPOS>BOND
     1     1     2 2   
     2     1     5 1   
     3     1    12 1   
     4     2     8 1   
     5     2     9 1   
     6     3     9 1   
     7     3    11 1   
     8     3    13 1   
     9     4     5 2   
    10     4     6 1   
    11     4     8 1   
    12     5     7 1   
    13     9    10 2   
    14    11    14 1   
    15    11    15 1   
@<TRIPOS>SUBSTRUCTURE
     1 8MT         1 TEMP              0 ****  ****    0 ROOT
