@<TRIPOS>MOLECULE
8MU
   56    59     1     0     0
SMALL
No Charge or Current Charge


@<TRIPOS>ATOM
      1 C4          28.7470    12.5930    -0.0490 ca         1 8MU       0.223300
      2 C5          28.4470    13.4350     1.0500 ca         1 8MU      -0.224000
      3 C6          29.0750    14.6970     1.0600 ca         1 8MU       0.448900
      4 N1          29.9060    15.0980     0.0960 nb         1 8MU      -0.343000
      5 N3          29.5880    12.9980    -1.0230 nb         1 8MU      -0.291000
      6 C2          30.1130    14.2200    -0.8870 ca         1 8MU       0.429900
      7 CAG         27.5420    13.0230     2.0920 cg         1 8MU      -0.077000
      8 CAH         26.7690    12.6540     2.9530 c1         1 8MU      -0.166100
      9 CAI         25.8160    12.1560     3.9550 c3         1 8MU       0.083700
     10 CAJ         24.3570    12.4050     3.5130 c3         1 8MU      -0.084100
     11 CAK         26.0850    10.6770     4.2440 ca         1 8MU      -0.074300
     12 CAL         25.9270     9.6960     3.2280 ca         1 8MU      -0.091000
     13 CAM         26.1640     8.3140     3.4710 cp         1 8MU      -0.014000
     14 CAN         25.9980     7.2960     2.3860 cp         1 8MU      -0.031000
     15 CAO         26.4300     7.5680     1.0650 ca         1 8MU      -0.095000
     16 CAP         26.2700     6.6230     0.0370 ca         1 8MU      -0.102500
     17 CAQ         25.6690     5.3790     0.3020 ca         1 8MU      -0.082300
     18 CAR         25.5020     4.3510    -0.8100 c3         1 8MU       0.197100
     19 CAT         25.2300     5.0930     1.6090 ca         1 8MU      -0.102500
     20 CAU         25.3920     6.0400     2.6360 ca         1 8MU      -0.095000
     21 CAV         26.5670     7.9820     4.7850 ca         1 8MU       0.058100
     22 CAX         27.1290     6.9320     6.6480 c5         1 8MU       0.371600
     23 CAZ         26.7270     8.9170     5.7680 ca         1 8MU       0.053100
     24 CBA         26.4990    10.2760     5.5360 ca         1 8MU      -0.096000
     25 CBC         28.1520    11.1950    -0.2230 c3         1 8MU      -0.138700
     26 CBD         26.7240    11.2200    -0.8050 c3         1 8MU      -0.087100
     27 NAA         30.9510    14.6210    -1.8660 nv         1 8MU      -1.063900
     28 NAE         28.8810    15.6110     2.0460 nv         1 8MU      -1.079900
     29 NAS         24.2570     4.5690    -1.5690 n8         1 8MU      -0.999200
     30 OAW         26.8870     6.7300     5.2120 os         1 8MU      -0.339100
     31 OAY         27.1520     8.3740     6.9380 os         1 8MU      -0.345100
     32 H1          25.9790    12.7400     4.8700 hc         1 8MU       0.063700
     33 H2          23.6600    12.0300     4.2710 hc         1 8MU       0.041367
     34 H3          24.1690    13.4780     3.3820 hc         1 8MU       0.041367
     35 H4          24.1340    11.9020     2.5640 hc         1 8MU       0.041367
     36 H5          25.6100    10.0080     2.2350 ha         1 8MU       0.131000
     37 H6          26.9070     8.5180     0.8390 ha         1 8MU       0.117000
     38 H7          26.6140     6.8590    -0.9680 ha         1 8MU       0.119500
     39 H8          25.4830     3.3390    -0.3810 h1         1 8MU       0.034700
     40 H9          26.3550     4.4100    -1.5020 h1         1 8MU       0.034700
     41 H10         24.7610     4.1370     1.8310 ha         1 8MU       0.119500
     42 H11         25.0330     5.8020     3.6340 ha         1 8MU       0.117000
     43 H12         26.3100     6.4700     7.2130 h2         1 8MU       0.063200
     44 H13         28.0860     6.4790     6.9330 h2         1 8MU       0.063200
     45 H14         26.6400    10.9990     6.3350 ha         1 8MU       0.132000
     46 H15         28.1420    10.6650     0.7370 hc         1 8MU       0.061700
     47 H16         28.7880    10.5930    -0.8840 hc         1 8MU       0.061700
     48 H17         26.3460    10.2000    -0.9440 hc         1 8MU       0.039700
     49 H18         26.0360    11.7500    -0.1360 hc         1 8MU       0.039700
     50 H19         26.7130    11.7240    -1.7790 hc         1 8MU       0.039700
     51 H20         30.9540    14.0970    -2.7380 hn         1 8MU       0.496500
     52 H21         31.1830    15.6090    -1.9270 hn         1 8MU       0.496500
     53 H22         29.1540    16.5730     1.8620 hn         1 8MU       0.502000
     54 H23         28.0990    15.4690     2.6790 hn         1 8MU       0.502000
     55 H24         24.1390     3.8020    -2.2420 hn         1 8MU       0.396500
     56 H25         23.4620     4.4580    -0.9300 hn         1 8MU       0.396500
@<TRIPOS>BOND
     1     1     2 ar  
     2     1     5 ar  
     3     1    25 1   
     4     2     3 ar  
     5     2     7 1   
     6     3     4 ar  
     7     3    28 1   
     8     4     6 ar  
     9     5     6 ar  
    10     6    27 1   
    11     7     8 3   
    12     8     9 1   
    13     9    10 1   
    14     9    11 1   
    15     9    32 1   
    16    10    33 1   
    17    10    34 1   
    18    10    35 1   
    19    11    12 ar  
    20    11    24 ar  
    21    12    13 ar  
    22    12    36 1   
    23    13    14 1   
    24    13    21 ar  
    25    14    15 ar  
    26    14    20 ar  
    27    15    16 ar  
    28    15    37 1   
    29    16    17 ar  
    30    16    38 1   
    31    17    18 1   
    32    17    19 ar  
    33    18    29 1   
    34    18    39 1   
    35    18    40 1   
    36    19    20 ar  
    37    19    41 1   
    38    20    42 1   
    39    21    23 ar  
    40    21    30 1   
    41    22    30 1   
    42    22    31 1   
    43    22    43 1   
    44    22    44 1   
    45    23    24 ar  
    46    23    31 1   
    47    24    45 1   
    48    25    26 1   
    49    25    46 1   
    50    25    47 1   
    51    26    48 1   
    52    26    49 1   
    53    26    50 1   
    54    27    51 1   
    55    27    52 1   
    56    28    53 1   
    57    28    54 1   
    58    29    55 1   
    59    29    56 1   
@<TRIPOS>SUBSTRUCTURE
     1 8MU         1 TEMP              0 ****  ****    0 ROOT
