@<TRIPOS>MOLECULE
8MU
   56    59     1     0     0
SMALL
abcg2


@<TRIPOS>ATOM
      1 C4          28.4770    12.3780    -0.3380 ca         1 8MU       0.223300
      2 C5          28.2740    13.2070     0.7630 ca         1 8MU      -0.224000
      3 C6          28.7020    14.5550     0.6180 ca         1 8MU       0.448900
      4 N1          29.2590    14.9860    -0.5080 nb         1 8MU      -0.343000
      5 N3          29.0340    12.8140    -1.4620 nb         1 8MU      -0.291000
      6 C2          29.3990    14.1010    -1.4920 ca         1 8MU       0.429900
      7 CAG         27.6660    12.7700     1.9660 cg         1 8MU      -0.077000
      8 CAH         27.1490    12.4430     3.0070 c1         1 8MU      -0.166100
      9 CAI         26.4730    12.0810     4.2500 c3         1 8MU       0.083700
     10 CAJ         25.0420    12.6420     4.2740 c3         1 8MU      -0.084100
     11 CAK         26.4590    10.5840     4.4970 ca         1 8MU      -0.074300
     12 CAL         26.3320     9.6800     3.4550 ca         1 8MU      -0.091000
     13 CAM         26.2320     8.2910     3.6620 cp         1 8MU      -0.014000
     14 CAN         26.1170     7.3540     2.5290 cp         1 8MU      -0.031000
     15 CAO         26.8950     7.5340     1.3840 ca         1 8MU      -0.095000
     16 CAP         26.7680     6.6910     0.2920 ca         1 8MU      -0.102500
     17 CAQ         25.8630     5.6320     0.3100 ca         1 8MU      -0.082300
     18 CAR         25.7380     4.6900    -0.8600 c3         1 8MU       0.197100
     19 CAT         25.0900     5.4520     1.4520 ca         1 8MU      -0.102500
     20 CAU         25.2140     6.2930     2.5480 ca         1 8MU      -0.095000
     21 CAV         26.2670     7.8810     4.9770 ca         1 8MU       0.058100
     22 CAX         26.1260     6.7510     6.8800 c5         1 8MU       0.371600
     23 CAZ         26.3940     8.7790     6.0250 ca         1 8MU       0.053100
     24 CBA         26.4920    10.1320     5.8240 ca         1 8MU      -0.096000
     25 CBC         28.0350    10.9460    -0.3130 c3         1 8MU      -0.138700
     26 CBD         26.5500    10.8080    -0.6460 c3         1 8MU      -0.087100
     27 NAA         29.9910    14.5350    -2.6210 nv         1 8MU      -1.063900
     28 NAE         28.5600    15.4320     1.6170 nv         1 8MU      -1.079900
     29 NAS         25.8630     5.3820    -2.1310 n8         1 8MU      -0.999200
     30 OAW         26.2530     6.6170     5.4720 os         1 8MU      -0.339100
     31 OAY         26.4510     8.0970     7.1950 os         1 8MU      -0.345100
     32 H1          27.0260    12.5470     5.0730 hc         1 8MU       0.063700
     33 H2          24.5650    12.4080     5.2260 hc         1 8MU       0.041367
     34 H3          25.0470    13.7250     4.1510 hc         1 8MU       0.041367
     35 H4          24.4460    12.2050     3.4730 hc         1 8MU       0.041367
     36 H5          26.2860    10.0510     2.4380 ha         1 8MU       0.131000
     37 H6          27.6200     8.3380     1.3500 ha         1 8MU       0.117000
     38 H7          27.3790     6.8600    -0.5850 ha         1 8MU       0.119500
     39 H8          24.8060     4.1180    -0.7510 h1         1 8MU       0.034700
     40 H9          26.5460     3.9550    -0.8000 h1         1 8MU       0.034700
     41 H10         24.3660     4.6450     1.4860 ha         1 8MU       0.119500
     42 H11         24.5760     6.1340     3.4080 ha         1 8MU       0.117000
     43 H12         25.0950     6.5360     7.1840 h2         1 8MU       0.063200
     44 H13         26.8210     6.0760     7.3790 h2         1 8MU       0.063200
     45 H14         26.5950    10.8220     6.6520 ha         1 8MU       0.132000
     46 H15         28.2330    10.5150     0.6710 hc         1 8MU       0.061700
     47 H16         28.6280    10.3870    -1.0390 hc         1 8MU       0.061700
     48 H17         26.2570     9.7580    -0.6570 hc         1 8MU       0.039700
     49 H18         25.9280    11.3190     0.0880 hc         1 8MU       0.039700
     50 H19         26.3300    11.2280    -1.6280 hc         1 8MU       0.039700
     51 H20         29.9660    13.9530    -3.4400 hn         1 8MU       0.496500
     52 H21         30.1300    15.5210    -2.7550 hn         1 8MU       0.496500
     53 H22         28.8520    16.3860     1.4930 hn         1 8MU       0.502000
     54 H23         28.1220    15.1740     2.4840 hn         1 8MU       0.502000
     55 H24         25.8840     4.7040    -2.8810 hn         1 8MU       0.396500
     56 H25         25.0420     5.9520    -2.2890 hn         1 8MU       0.396500
@<TRIPOS>BOND
     1     1     2 ar  
     2     1     5 ar  
     3     1    25 1   
     4     2     3 ar  
     5     2     7 1   
     6     3     4 ar  
     7     3    28 1   
     8     4     6 ar  
     9     5     6 ar  
    10     6    27 1   
    11     7     8 3   
    12     8     9 1   
    13     9    10 1   
    14     9    11 1   
    15     9    32 1   
    16    10    33 1   
    17    10    34 1   
    18    10    35 1   
    19    11    12 ar  
    20    11    24 ar  
    21    12    13 ar  
    22    12    36 1   
    23    13    14 1   
    24    13    21 ar  
    25    14    15 ar  
    26    14    20 ar  
    27    15    16 ar  
    28    15    37 1   
    29    16    17 ar  
    30    16    38 1   
    31    17    18 1   
    32    17    19 ar  
    33    18    29 1   
    34    18    39 1   
    35    18    40 1   
    36    19    20 ar  
    37    19    41 1   
    38    20    42 1   
    39    21    23 ar  
    40    21    30 1   
    41    22    30 1   
    42    22    31 1   
    43    22    43 1   
    44    22    44 1   
    45    23    24 ar  
    46    23    31 1   
    47    24    45 1   
    48    25    26 1   
    49    25    46 1   
    50    25    47 1   
    51    26    48 1   
    52    26    49 1   
    53    26    50 1   
    54    27    51 1   
    55    27    52 1   
    56    28    53 1   
    57    28    54 1   
    58    29    55 1   
    59    29    56 1   
@<TRIPOS>SUBSTRUCTURE
     1 8MU         1 TEMP              0 ****  ****    0 ROOT
