@<TRIPOS>MOLECULE
8MV
   20    20     1     0     0
SMALL
abcg2


@<TRIPOS>ATOM
      1 C1           3.1240     1.2250    -0.0920 c          1 8MV       0.503400
      2 C2           2.1800     0.1410     0.0750 cc         1 8MV       0.017500
      3 C3           2.3000    -1.1030     0.6210 cd         1 8MV      -0.097000
      4 C4           1.0280    -1.7080     0.5010 cd         1 8MV      -0.182000
      5 C5           0.2270    -0.7910    -0.1110 cc         1 8MV       0.148300
      6 C7          -1.1930    -0.8490    -0.5230 c3         1 8MV       0.133300
      7 C9          -3.2140     0.2300     0.0320 c          1 8MV       0.595100
      8 C11         -3.8350     1.3200     0.8520 c3         1 8MV      -0.155100
      9 O6           0.9160     0.3260    -0.3740 os         1 8MV      -0.209000
     10 O8          -1.9050     0.1220     0.2520 os         1 8MV      -0.441100
     11 O10         -3.8060    -0.4620    -0.7570 o          1 8MV      -0.486000
     12 H1           2.7200     2.1260    -0.5820 h4         1 8MV       0.011200
     13 H4           3.1910    -1.5270     1.0560 ha         1 8MV       0.158000
     14 H5           0.7340    -2.6930     0.8260 ha         1 8MV       0.149000
     15 H6          -1.3000    -0.6350    -1.5890 h1         1 8MV       0.071200
     16 H7          -1.5730    -1.8540    -0.3380 h1         1 8MV       0.071200
     17 H8          -3.2650     1.5470     1.7490 hc         1 8MV       0.072033
     18 H9          -3.8880     2.2280     0.2470 hc         1 8MV       0.072033
     19 H10         -4.8520     1.0460     1.1230 hc         1 8MV       0.072033
     20 O1           4.2770     1.1590     0.2770 o          1 8MV      -0.506100
@<TRIPOS>BOND
     1     1     2 1   
     2     1    12 1   
     3     1    20 2   
     4     2     3 2   
     5     2     9 1   
     6     3     4 1   
     7     3    13 1   
     8     4     5 2   
     9     4    14 1   
    10     5     6 1   
    11     5     9 1   
    12     6    10 1   
    13     6    15 1   
    14     6    16 1   
    15     7     8 1   
    16     7    10 1   
    17     7    11 2   
    18     8    17 1   
    19     8    18 1   
    20     8    19 1   
@<TRIPOS>SUBSTRUCTURE
     1 8MV         1 TEMP              0 ****  ****    0 ROOT
