@<TRIPOS>MOLECULE
8MV
   20    20     1     0     0
SMALL
No Charge or Current Charge


@<TRIPOS>ATOM
      1 C1           3.6670     0.7240    -0.5660 c          1 8MV       0.503400
      2 C2           2.3860     0.1000    -0.1600 cc         1 8MV       0.017500
      3 C3           2.1750    -0.6950     0.9360 cd         1 8MV      -0.097000
      4 C4           0.8110    -1.0540     0.9170 cd         1 8MV      -0.182000
      5 C5           0.2500    -0.4650    -0.1860 cc         1 8MV       0.148300
      6 C7          -1.1600    -0.4980    -0.7130 c3         1 8MV       0.133300
      7 C9          -3.3750     0.1560    -0.0170 c          1 8MV       0.595100
      8 C11         -4.1610     0.8000     1.1160 c3         1 8MV      -0.155100
      9 O6           1.2110     0.2530    -0.8660 os         1 8MV      -0.209000
     10 O8          -2.0370     0.0910     0.2700 os         1 8MV      -0.441100
     11 O10         -3.8840    -0.2520    -1.0520 o          1 8MV      -0.486000
     12 H1           3.6120     1.3330    -1.4940 h4         1 8MV       0.011200
     13 H4           2.9170    -0.9870     1.6740 ha         1 8MV       0.158000
     14 H5           0.2930    -1.6780     1.6380 ha         1 8MV       0.149000
     15 H6          -1.2050     0.0570    -1.6600 h1         1 8MV       0.071200
     16 H7          -1.4400    -1.5400    -0.9140 h1         1 8MV       0.071200
     17 H8          -3.9560     0.2530     2.0430 hc         1 8MV       0.072033
     18 H9          -3.7300     1.7850     1.3280 hc         1 8MV       0.072033
     19 H10         -5.2340     0.8600     0.9040 hc         1 8MV       0.072033
     20 O1           4.7270     0.6040     0.0430 o          1 8MV      -0.506100
@<TRIPOS>BOND
     1     1     2 1   
     2     1    12 1   
     3     1    20 2   
     4     2     3 2   
     5     2     9 1   
     6     3     4 1   
     7     3    13 1   
     8     4     5 2   
     9     4    14 1   
    10     5     6 1   
    11     5     9 1   
    12     6    10 1   
    13     6    15 1   
    14     6    16 1   
    15     7     8 1   
    16     7    10 1   
    17     7    11 2   
    18     8    17 1   
    19     8    18 1   
    20     8    19 1   
@<TRIPOS>SUBSTRUCTURE
     1 8MV         1 TEMP              0 ****  ****    0 ROOT
