@<TRIPOS>MOLECULE
8MW
   28    30     1     0     0
SMALL
No Charge or Current Charge


@<TRIPOS>ATOM
      1 C4          -2.4790     0.0140     0.4860 ca         1 8MW       0.134300
      2 C5          -0.2740    -0.5210     0.7260 ca         1 8MW       0.082300
      3 C6           2.2210    -0.3450     0.5710 cc         1 8MW      -0.076600
      4 N1          -1.5580    -0.8940     0.8710 nb         1 8MW      -0.157000
      5 C7           3.6890    -0.6570     0.4980 c          1 8MW       0.729200
      6 C8          -3.9220    -0.3680     0.6480 cx         1 8MW      -0.166000
      7 C9          -4.4820    -1.6420     0.0520 cx         1 8MW      -0.119400
      8 C10         -4.8990    -0.3040    -0.5060 cx         1 8MW      -0.119400
      9 O1           4.4730     0.1350    -0.0060 o          1 8MW      -0.700500
     10 O            4.0680    -1.7420     0.9210 o          1 8MW      -0.700500
     11 C1           1.5720     0.8380     0.1880 cd         1 8MW      -0.086400
     12 C            2.2880     2.1220    -0.1870 c3         1 8MW      -0.025900
     13 S            1.0710    -1.5830     1.1620 ss         1 8MW      -0.063900
     14 C2           0.1080     0.7140     0.2310 ca         1 8MW      -0.153800
     15 N           -2.2240     1.2390    -0.0270 nb         1 8MW      -0.221000
     16 C3          -0.9280     1.6030    -0.1690 ca         1 8MW       0.149300
     17 H1          -4.3070    -0.0800     1.6240 hc         1 8MW       0.087700
     18 H2          -3.8220    -2.2570    -0.5540 hc         1 8MW       0.071700
     19 H3          -5.2110    -2.1980     0.6380 hc         1 8MW       0.071700
     20 H4          -5.9090     0.0410    -0.2970 hc         1 8MW       0.071700
     21 H5          -4.5170    -0.0250    -1.4860 hc         1 8MW       0.071700
     22 H6           0.0390     2.9200    -1.6060 hc         1 8MW       0.046700
     23 H7          -1.6390     3.3340    -1.2850 hc         1 8MW       0.046700
     24 H8          -0.4150     3.7120    -0.0750 hc         1 8MW       0.046700
     25 H10          2.4610     2.1830    -1.2680 hc         1 8MW       0.040367
     26 H11          1.7280     3.0070     0.1250 hc         1 8MW       0.040367
     27 H12          3.2510     2.2250     0.3220 hc         1 8MW       0.040367
     28 C11         -0.7190     2.9650    -0.8160 c3         1 8MW      -0.142400
@<TRIPOS>BOND
     1     1     4 ar  
     2     1     6 1   
     3     1    15 ar  
     4     2     4 ar  
     5     2    13 1   
     6     2    14 ar  
     7     3     5 1   
     8     3    11 2   
     9     3    13 1   
    10     5     9 1   
    11     5    10 1   
    12     6     7 1   
    13     6     8 1   
    14     6    17 1   
    15     7     8 1   
    16     7    18 1   
    17     7    19 1   
    18     8    20 1   
    19     8    21 1   
    20    11    12 1   
    21    11    14 1   
    22    12    25 1   
    23    12    26 1   
    24    12    27 1   
    25    14    16 ar  
    26    15    16 ar  
    27    16    28 1   
    28    22    28 1   
    29    23    28 1   
    30    24    28 1   
@<TRIPOS>SUBSTRUCTURE
     1 8MW         1 TEMP              0 ****  ****    0 ROOT
