@<TRIPOS>MOLECULE
8MW
   28    30     1     0     0
SMALL
abcg2


@<TRIPOS>ATOM
      1 C4          -2.5430     0.1780     0.0110 ca         1 8MW       0.134300
      2 C5          -0.4110    -0.4850     0.1070 ca         1 8MW       0.082300
      3 C6           2.0580    -0.3520     0.1470 cc         1 8MW      -0.076600
      4 N1          -1.6900    -0.8270     0.1060 nb         1 8MW      -0.157000
      5 C7           3.4820    -0.8580     0.2040 c          1 8MW       0.729200
      6 C8          -3.9870    -0.1270     0.0050 cx         1 8MW      -0.166000
      7 C9          -4.5120    -1.2720     0.8340 cx         1 8MW      -0.119400
      8 C10         -4.4810    -1.3940    -0.6460 cx         1 8MW      -0.119400
      9 O1           4.4120    -0.0360     0.1650 o          1 8MW      -0.700500
     10 O            3.5660    -2.1000     0.2890 o          1 8MW      -0.700500
     11 C1           1.5150     0.8920     0.0480 cd         1 8MW      -0.086400
     12 C            2.2980     2.1640    -0.0220 c3         1 8MW      -0.025900
     13 S            0.8710    -1.6300     0.2140 ss         1 8MW      -0.063900
     14 C2           0.0700     0.8320     0.0210 ca         1 8MW      -0.153800
     15 N           -2.2070     1.4700    -0.0830 nb         1 8MW      -0.221000
     16 C3          -0.9270     1.8170    -0.0790 ca         1 8MW       0.149300
     17 H1          -4.6220     0.7460    -0.0780 hc         1 8MW       0.087700
     18 H2          -3.7880    -1.8370     1.4070 hc         1 8MW       0.071700
     19 H3          -5.4660    -1.1250     1.3210 hc         1 8MW       0.071700
     20 H4          -5.4130    -1.3340    -1.1920 hc         1 8MW       0.071700
     21 H5          -3.7340    -2.0410    -1.0890 hc         1 8MW       0.071700
     22 H6           0.0350     3.5020    -1.0080 hc         1 8MW       0.046700
     23 H7          -1.5640     3.8310    -0.3290 hc         1 8MW       0.046700
     24 H8          -0.1620     3.6490     0.7290 hc         1 8MW       0.046700
     25 H10          2.0800     2.7120    -0.9400 hc         1 8MW       0.040367
     26 H11          2.0580     2.8250     0.8120 hc         1 8MW       0.040367
     27 H12          3.3610     1.9550     0.0060 hc         1 8MW       0.040367
     28 C11         -0.6380     3.2810    -0.1800 c3         1 8MW      -0.142400
@<TRIPOS>BOND
     1     1     4 ar  
     2     1     6 1   
     3     1    15 ar  
     4     2     4 ar  
     5     2    13 1   
     6     2    14 ar  
     7     3     5 1   
     8     3    11 2   
     9     3    13 1   
    10     5     9 1   
    11     5    10 1   
    12     6     7 1   
    13     6     8 1   
    14     6    17 1   
    15     7     8 1   
    16     7    18 1   
    17     7    19 1   
    18     8    20 1   
    19     8    21 1   
    20    11    12 1   
    21    11    14 1   
    22    12    25 1   
    23    12    26 1   
    24    12    27 1   
    25    14    16 ar  
    26    15    16 ar  
    27    16    28 1   
    28    22    28 1   
    29    23    28 1   
    30    24    28 1   
@<TRIPOS>SUBSTRUCTURE
     1 8MW         1 TEMP              0 ****  ****    0 ROOT
