@<TRIPOS>MOLECULE
8MX
   51    55     1     0     0
SMALL
No Charge or Current Charge


@<TRIPOS>ATOM
      1 C01          0.6280     1.9340     0.5780 c3         1 8MX      -0.030800
      2 C02          0.0310     0.5750     0.1730 ca         1 8MX      -0.101300
      3 C03         -1.3800     0.3620     0.1640 ca         1 8MX       0.325000
      4 C04         -1.8830    -0.9200    -0.0720 ca         1 8MX      -0.194600
      5 C05         -1.0230    -1.9820    -0.4070 ca         1 8MX      -0.072000
      6 C06          0.3560    -1.7670    -0.4720 ca         1 8MX       0.072000
      7 C07          0.9010    -0.4970    -0.1660 ca         1 8MX       0.255000
      8 N08          2.3060    -0.2960    -0.2210 nh         1 8MX      -0.845400
      9 C09          3.2640    -0.9890     0.6780 c5         1 8MX       0.214800
     10 C10          4.5830    -0.9720    -0.1590 c5         1 8MX      -0.119700
     11 C11          5.9000    -1.1270     0.6450 c6         1 8MX      -0.061400
     12 C12          6.1640     0.1220     1.5210 c6         1 8MX      -0.114400
     13 C13          6.0360     1.4220     0.6910 c6         1 8MX       0.154800
     14 N14          4.7170     1.5030     0.0200 n7         1 8MX      -0.850400
     15 C15          4.4840     0.3750    -0.9410 c5         1 8MX       0.161500
     16 C16          2.9810     0.3520    -1.3830 c5         1 8MX       0.209800
     17 F17          1.1530    -2.8090    -0.8170 f          1 8MX      -0.199000
     18 C18         -3.3380    -1.1480     0.1090 c          1 8MX       0.591900
     19 O19         -3.8600    -2.1730    -0.3160 o          1 8MX      -0.539100
     20 C20         -4.0170    -0.0950     0.8860 cc         1 8MX      -0.297400
     21 C21         -3.4650     1.1730     1.0390 cd         1 8MX       0.017000
     22 N22         -2.2920     1.4260     0.3070 na         1 8MX      -0.641200
     23 C23         -2.2080     2.7460    -0.3400 cx         1 8MX       0.171500
     24 C24         -1.7540     2.9830    -1.7600 cx         1 8MX      -0.139900
     25 C25         -3.1860     3.2490    -1.3730 cx         1 8MX      -0.139900
     26 C26         -5.3600    -0.3400     1.4680 c          1 8MX       0.728200
     27 O27         -5.8760    -1.4440     1.4020 o          1 8MX      -0.713000
     28 O28         -5.9140     0.5830     2.0480 o          1 8MX      -0.713000
     29 H011         0.7490     2.5900    -0.2910 hc         1 8MX       0.039033
     30 H013         0.0030     2.4500     1.3160 hc         1 8MX       0.039033
     31 H012         1.6100     1.8320     1.0540 hc         1 8MX       0.039033
     32 H051        -1.4160    -2.9770    -0.6020 ha         1 8MX       0.152000
     33 H091         3.3650    -0.4410     1.6240 h1         1 8MX       0.042200
     34 H092         2.9570    -2.0170     0.9140 h1         1 8MX       0.042200
     35 H101         4.5720    -1.8100    -0.8650 hc         1 8MX       0.059700
     36 H111         5.8610    -2.0300     1.2700 hc         1 8MX       0.038700
     37 H112         6.7360    -1.2640    -0.0540 hc         1 8MX       0.038700
     38 H122         5.4610     0.1500     2.3640 hc         1 8MX       0.041200
     39 H121         7.1690     0.0610     1.9610 hc         1 8MX       0.041200
     40 H132         6.1640     2.2910     1.3540 h1         1 8MX       0.044200
     41 H131         6.8360     1.4600    -0.0640 h1         1 8MX       0.044200
     42 H141         3.9820     1.4280     0.7320 hn         1 8MX       0.422000
     43 H151         5.1730     0.4220    -1.7970 h1         1 8MX       0.064700
     44 H162         2.8540    -0.2530    -2.2920 h1         1 8MX       0.047700
     45 H161         2.6000     1.3620    -1.5870 h1         1 8MX       0.047700
     46 H211        -3.9720     2.0130     1.5160 h4         1 8MX       0.225000
     47 H231        -1.8850     3.4620     0.4180 h1         1 8MX       0.083700
     48 H241        -1.1060     3.8360    -1.9430 hc         1 8MX       0.079700
     49 H242        -1.5480     2.1110    -2.3760 hc         1 8MX       0.079700
     50 H252        -3.9440     2.5570    -1.7300 hc         1 8MX       0.079700
     51 H251        -3.5100     4.2840    -1.2960 hc         1 8MX       0.079700
@<TRIPOS>BOND
     1     1     2 1   
     2     1    29 1   
     3     1    30 1   
     4     1    31 1   
     5     2     3 ar  
     6     2     7 ar  
     7     3     4 ar  
     8     3    22 1   
     9     4     5 ar  
    10     4    18 1   
    11     5     6 ar  
    12     5    32 1   
    13     6     7 ar  
    14     6    17 1   
    15     7     8 1   
    16     8     9 1   
    17     8    16 1   
    18     9    10 1   
    19     9    33 1   
    20     9    34 1   
    21    10    11 1   
    22    10    15 1   
    23    10    35 1   
    24    11    12 1   
    25    11    36 1   
    26    11    37 1   
    27    12    13 1   
    28    12    38 1   
    29    12    39 1   
    30    13    14 1   
    31    13    40 1   
    32    13    41 1   
    33    14    15 1   
    34    14    42 1   
    35    15    16 1   
    36    15    43 1   
    37    16    44 1   
    38    16    45 1   
    39    18    19 2   
    40    18    20 1   
    41    20    21 2   
    42    20    26 1   
    43    21    22 1   
    44    21    46 1   
    45    22    23 1   
    46    23    24 1   
    47    23    25 1   
    48    23    47 1   
    49    24    25 1   
    50    24    48 1   
    51    24    49 1   
    52    25    50 1   
    53    25    51 1   
    54    26    27 1   
    55    26    28 1   
@<TRIPOS>SUBSTRUCTURE
     1 8MX         1 TEMP              0 ****  ****    0 ROOT
