@<TRIPOS>MOLECULE
8MX
   51    55     1     0     0
SMALL
abcg2


@<TRIPOS>ATOM
      1 C01          0.6210     1.9020     0.7330 c3         1 8MX      -0.030800
      2 C02          0.0400     0.6200     0.2070 ca         1 8MX      -0.101300
      3 C03         -1.3520     0.3630     0.1620 ca         1 8MX       0.325000
      4 C04         -1.8240    -0.9450    -0.0150 ca         1 8MX      -0.194600
      5 C05         -0.9250    -1.9650    -0.3370 ca         1 8MX      -0.072000
      6 C06          0.4020    -1.6710    -0.4400 ca         1 8MX       0.072000
      7 C07          0.9220    -0.4070    -0.1300 ca         1 8MX       0.255000
      8 N08          2.3020    -0.1750    -0.1390 nh         1 8MX      -0.845400
      9 C09          3.1970    -0.9520     0.7160 c5         1 8MX       0.214800
     10 C10          4.5110    -1.0180    -0.0690 c5         1 8MX      -0.119700
     11 C11          5.7720    -1.0200     0.7890 c6         1 8MX      -0.061400
     12 C12          6.0500     0.3500     1.3980 c6         1 8MX      -0.114400
     13 C13          6.0050     1.4270     0.3200 c6         1 8MX       0.154800
     14 N14          4.7430     1.4640    -0.4050 n7         1 8MX      -0.850400
     15 C15          4.4140     0.1870    -1.0210 c5         1 8MX       0.161500
     16 C16          2.9450     0.1500    -1.4060 c5         1 8MX       0.209800
     17 F17          1.2580    -2.6350    -0.8190 f          1 8MX      -0.199000
     18 C18         -3.2480    -1.3110     0.1690 c          1 8MX       0.591900
     19 O19         -3.6170    -2.4590    -0.0670 o          1 8MX      -0.539100
     20 C20         -4.0910    -0.2340     0.6320 cc         1 8MX      -0.297400
     21 C21         -3.5790     1.0270     0.6140 cd         1 8MX       0.017000
     22 N22         -2.3010     1.3650     0.3420 na         1 8MX      -0.641200
     23 C23         -2.0490     2.7480     0.0020 cx         1 8MX       0.171500
     24 C24         -1.5520     3.0760    -1.3670 cx         1 8MX      -0.139900
     25 C25         -2.9580     3.4110    -0.9860 cx         1 8MX      -0.139900
     26 C26         -5.5370    -0.4030     1.0700 c          1 8MX       0.728200
     27 O27         -5.9370    -1.5590     1.2880 o          1 8MX      -0.713000
     28 O28         -6.2010     0.6470     1.2030 o          1 8MX      -0.713000
     29 H011         0.7290     2.6740    -0.0290 hc         1 8MX       0.039033
     30 H013         0.0190     2.3090     1.5420 hc         1 8MX       0.039033
     31 H012         1.6140     1.7020     1.1280 hc         1 8MX       0.039033
     32 H051        -1.2880    -2.9680    -0.5190 ha         1 8MX       0.152000
     33 H091         3.3240    -0.4460     1.6810 h1         1 8MX       0.042200
     34 H092         2.8270    -1.9550     0.9420 h1         1 8MX       0.042200
     35 H101         4.4970    -1.9260    -0.6810 hc         1 8MX       0.059700
     36 H111         5.6900    -1.7820     1.5710 hc         1 8MX       0.038700
     37 H112         6.6220    -1.3140     0.1670 hc         1 8MX       0.038700
     38 H122         5.3040     0.5820     2.1660 hc         1 8MX       0.041200
     39 H121         7.0220     0.3510     1.8970 hc         1 8MX       0.041200
     40 H132         6.1840     2.4140     0.7520 h1         1 8MX       0.044200
     41 H131         6.8080     1.2540    -0.4050 h1         1 8MX       0.044200
     42 H141         4.0040     1.7140     0.2440 hn         1 8MX       0.422000
     43 H151         5.0630     0.0490    -1.8920 h1         1 8MX       0.064700
     44 H162         2.7760    -0.6090    -2.1810 h1         1 8MX       0.047700
     45 H161         2.5910     1.1100    -1.7940 h1         1 8MX       0.047700
     46 H211        -4.2360     1.8620     0.8170 h4         1 8MX       0.225000
     47 H231        -1.6960     3.3650     0.8180 h1         1 8MX       0.083700
     48 H241        -0.8250     3.8730    -1.4560 hc         1 8MX       0.079700
     49 H242        -1.4080     2.2560    -2.0600 hc         1 8MX       0.079700
     50 H252        -3.7490     2.8220    -1.4320 hc         1 8MX       0.079700
     51 H251        -3.2200     4.4420    -0.7940 hc         1 8MX       0.079700
@<TRIPOS>BOND
     1     1     2 1   
     2     1    29 1   
     3     1    30 1   
     4     1    31 1   
     5     2     3 ar  
     6     2     7 ar  
     7     3     4 ar  
     8     3    22 1   
     9     4     5 ar  
    10     4    18 1   
    11     5     6 ar  
    12     5    32 1   
    13     6     7 ar  
    14     6    17 1   
    15     7     8 1   
    16     8     9 1   
    17     8    16 1   
    18     9    10 1   
    19     9    33 1   
    20     9    34 1   
    21    10    11 1   
    22    10    15 1   
    23    10    35 1   
    24    11    12 1   
    25    11    36 1   
    26    11    37 1   
    27    12    13 1   
    28    12    38 1   
    29    12    39 1   
    30    13    14 1   
    31    13    40 1   
    32    13    41 1   
    33    14    15 1   
    34    14    42 1   
    35    15    16 1   
    36    15    43 1   
    37    16    44 1   
    38    16    45 1   
    39    18    19 2   
    40    18    20 1   
    41    20    21 2   
    42    20    26 1   
    43    21    22 1   
    44    21    46 1   
    45    22    23 1   
    46    23    24 1   
    47    23    25 1   
    48    23    47 1   
    49    24    25 1   
    50    24    48 1   
    51    24    49 1   
    52    25    50 1   
    53    25    51 1   
    54    26    27 1   
    55    26    28 1   
@<TRIPOS>SUBSTRUCTURE
     1 8MX         1 TEMP              0 ****  ****    0 ROOT
