@<TRIPOS>MOLECULE
8MY
   36    38     1     0     0
SMALL
bcc


@<TRIPOS>ATOM
      1 C10          0.3550     2.2250     0.0970 ca         1 8MY       0.760200
      2 C13          1.8210     0.3950    -0.0500 ca         1 8MY       0.632800
      3 C15          3.3670    -1.5230    -0.1650 cc         1 8MY      -0.093300
      4 C17          5.1930    -0.2920    -0.1510 cd         1 8MY       0.331600
      5 C22         -3.5430    -1.8620    -0.0620 ca         1 8MY      -0.185500
      6 C03         -5.5900    -0.6120     0.0430 ca         1 8MY      -0.062000
      7 C04         -4.8520     0.5710     0.0710 ca         1 8MY      -0.056500
      8 C05         -3.4710     0.5490     0.0340 ca         1 8MY      -0.185500
      9 C06         -2.7920    -0.6750    -0.0320 ca         1 8MY       0.212600
     10 C08         -0.4050     0.0960    -0.0330 ca         1 8MY       0.973900
     11 C12          1.6810     1.7620     0.0420 ca         1 8MY      -0.478600
     12 C16          4.7270    -1.6290    -0.1940 cd         1 8MY      -0.288300
     13 C18          6.6060     0.1790    -0.1960 c3         1 8MY       0.111100
     14 C23         -4.9180    -1.8350    -0.0250 ca         1 8MY      -0.056500
     15 N01         -8.1640    -0.5420     0.1160 n1         1 8MY      -0.373800
     16 N07         -1.4220    -0.8200    -0.0740 nu         1 8MY      -0.735300
     17 N09         -0.6840     1.3820     0.0580 nb         1 8MY      -0.849000
     18 N11          0.0770     3.5300     0.1760 nv         1 8MY      -0.962500
     19 N14          3.0850    -0.1940    -0.1070 na         1 8MY       0.052600
     20 N20          4.1930     0.5550    -0.0920 nc         1 8MY      -0.514800
     21 N21          0.8050    -0.4550    -0.0900 nb         1 8MY      -0.849000
     22 O19          7.3630    -0.6080     0.6930 oh         1 8MY      -0.589800
     23 H1           2.5900    -2.2670    -0.1790 h4         1 8MY       0.192000
     24 H2          -3.0340    -2.8170    -0.1160 ha         1 8MY       0.153500
     25 H3          -5.3620     1.5240     0.1230 ha         1 8MY       0.142000
     26 H4          -2.9220     1.4750     0.0570 ha         1 8MY       0.153500
     27 H5           2.5230     2.4350     0.0740 ha         1 8MY       0.179000
     28 H6           5.3100    -2.5330    -0.2440 ha         1 8MY       0.174000
     29 H7           6.9770     0.0860    -1.2250 h1         1 8MY       0.035700
     30 H8           6.6360     1.2460     0.0550 h1         1 8MY       0.035700
     31 H9          -5.4730    -2.7620    -0.0500 ha         1 8MY       0.142000
     32 H10         -1.0890    -1.7700    -0.1400 hn         1 8MY       0.457800
     33 H11         -0.8730     3.8320     0.3080 hn         1 8MY       0.445800
     34 H12          0.8070     4.2070     0.3100 hn         1 8MY       0.445800
     35 H13          8.2920    -0.4020     0.5540 ho         1 8MY       0.406000
     36 C02         -7.0110    -0.5730     0.0830 cg         1 8MY       0.242800
@<TRIPOS>BOND
     1     1    11 ar  
     2     1    17 ar  
     3     1    18 1   
     4     2    11 ar  
     5     2    19 1   
     6     2    21 ar  
     7     3    12 2   
     8     3    19 1   
     9     3    23 1   
    10     4    12 1   
    11     4    13 1   
    12     4    20 2   
    13     5     9 ar  
    14     5    14 ar  
    15     5    24 1   
    16     6     7 ar  
    17     6    14 ar  
    18     6    36 1   
    19     7     8 ar  
    20     7    25 1   
    21     8     9 ar  
    22     8    26 1   
    23     9    16 1   
    24    10    16 1   
    25    10    17 ar  
    26    10    21 ar  
    27    11    27 1   
    28    12    28 1   
    29    13    22 1   
    30    13    29 1   
    31    13    30 1   
    32    14    31 1   
    33    15    36 3   
    34    16    32 1   
    35    18    33 1   
    36    18    34 1   
    37    19    20 1   
    38    22    35 1   
@<TRIPOS>SUBSTRUCTURE
     1 8MY         1 TEMP              0 ****  ****    0 ROOT
