@<TRIPOS>MOLECULE
8MY
   36    38     1     0     0
SMALL
No Charge or Current Charge


@<TRIPOS>ATOM
      1 C10          0.3760     2.0680     0.6980 ca         1 8MY       0.431900
      2 C13          1.8680     0.2460     0.2160 ca         1 8MY       0.304500
      3 C15          3.5540    -1.5240     0.4590 cc         1 8MY      -0.126000
      4 C17          5.2170    -0.2890    -0.4330 cd         1 8MY       0.266300
      5 C22         -3.6800    -1.7960     0.1620 ca         1 8MY      -0.167500
      6 C03         -5.6890    -0.5050    -0.3260 ca         1 8MY      -0.062000
      7 C04         -4.8850     0.6020    -0.6550 ca         1 8MY      -0.038500
      8 C05         -3.4840     0.5060    -0.5690 ca         1 8MY      -0.167500
      9 C06         -2.8730    -0.6900    -0.1480 ca         1 8MY       0.351000
     10 C08         -0.4280     0.0320     0.1520 ca         1 8MY       0.447900
     11 C12          1.6770     1.5980     0.5760 ca         1 8MY      -0.330000
     12 C16          4.8780    -1.5500     0.1200 cd         1 8MY      -0.205000
     13 C18          6.5820     0.1220    -0.9590 c3         1 8MY       0.134300
     14 C23         -5.0820    -1.7080     0.0800 ca         1 8MY      -0.038500
     15 N01         -8.2840    -0.3430    -0.4830 n1         1 8MY      -0.463000
     16 N07         -1.4860    -0.8330    -0.0640 nu         1 8MY      -0.928900
     17 N09         -0.6900     1.2990     0.4920 nb         1 8MY      -0.323000
     18 N11          0.1200     3.3500     1.0440 nv         1 8MY      -1.072900
     19 N14          3.1860    -0.2350     0.0970 na         1 8MY       0.103300
     20 N20          4.1840     0.5390    -0.4700 nc         1 8MY      -0.514800
     21 N21          0.7790    -0.5310     0.0110 nb         1 8MY      -0.323000
     22 O19          7.6030     0.0840     0.0580 oh         1 8MY      -0.652000
     23 H1           2.8850    -2.2550     0.8990 h4         1 8MY       0.174000
     24 H2          -3.2240    -2.7300     0.4780 ha         1 8MY       0.135500
     25 H3          -5.3410     1.5350    -0.9820 ha         1 8MY       0.124000
     26 H4          -2.8820     1.3630    -0.8510 ha         1 8MY       0.135500
     27 H5           2.5230     2.2530     0.7560 ha         1 8MY       0.161000
     28 H6           5.5550    -2.3870     0.2450 ha         1 8MY       0.156000
     29 H7           6.8470    -0.5540    -1.7830 h1         1 8MY       0.035700
     30 H8           6.5100     1.1330    -1.3820 h1         1 8MY       0.035700
     31 H9          -5.6920    -2.5740     0.3310 ha         1 8MY       0.124000
     32 H10         -1.1750    -1.8030    -0.0970 hn         1 8MY       0.513000
     33 H11         -0.8290     3.5850     1.3270 hn         1 8MY       0.501000
     34 H12          0.8650     3.9090     1.4500 hn         1 8MY       0.501000
     35 H13          8.4420     0.3740    -0.3660 ho         1 8MY       0.445000
     36 C02         -7.1200    -0.4100    -0.4130 cg         1 8MY       0.332000
@<TRIPOS>BOND
     1     1    11 ar  
     2     1    17 ar  
     3     1    18 1   
     4     2    11 ar  
     5     2    19 1   
     6     2    21 ar  
     7     3    12 2   
     8     3    19 1   
     9     3    23 1   
    10     4    12 1   
    11     4    13 1   
    12     4    20 2   
    13     5     9 ar  
    14     5    14 ar  
    15     5    24 1   
    16     6     7 ar  
    17     6    14 ar  
    18     6    36 1   
    19     7     8 ar  
    20     7    25 1   
    21     8     9 ar  
    22     8    26 1   
    23     9    16 1   
    24    10    16 1   
    25    10    17 ar  
    26    10    21 ar  
    27    11    27 1   
    28    12    28 1   
    29    13    22 1   
    30    13    29 1   
    31    13    30 1   
    32    14    31 1   
    33    15    36 3   
    34    16    32 1   
    35    18    33 1   
    36    18    34 1   
    37    19    20 1   
    38    22    35 1   
@<TRIPOS>SUBSTRUCTURE
     1 8MY         1 TEMP              0 ****  ****    0 ROOT
