@<TRIPOS>MOLECULE
8MZ
   24    26     1     0     0
SMALL
No Charge or Current Charge


@<TRIPOS>ATOM
      1 C4           0.6170     0.6600     0.1580 ca         1 8MZ      -0.072000
      2 C5          -0.2630    -0.4510     0.0300 ca         1 8MZ      -0.120500
      3 C6          -1.7180    -0.2290     0.0430 cc         1 8MZ       0.391500
      4 C7          -2.5720    -1.2560     0.3800 cd         1 8MZ      -0.273000
      5 C8          -3.5750     0.8740    -0.1180 cd         1 8MZ       0.700300
      6 N2           3.1090     1.2570     0.2040 ns         1 8MZ      -0.503600
      7 C9           4.3040     0.6000     0.0930 c          1 8MZ       0.593000
      8 N3           3.8980    -0.6950    -0.0800 ns         1 8MZ      -0.503600
      9 O            5.4330     1.0500     0.1360 o          1 8MZ      -0.565000
     10 C2           2.5040    -0.8520    -0.0780 ca         1 8MZ       0.010600
     11 C1           1.6840    -1.9680    -0.2330 ca         1 8MZ      -0.118000
     12 C3           1.9910     0.4120     0.1060 ca         1 8MZ      -0.006400
     13 C            0.2870    -1.7540    -0.1840 ca         1 8MZ      -0.093000
     14 N           -2.2820     0.9920    -0.2270 nc         1 8MZ      -0.734000
     15 S           -4.2340    -0.6910     0.3390 ss         1 8MZ      -0.102400
     16 H1           0.2420     1.6710     0.2990 ha         1 8MZ       0.144000
     17 H2          -3.7610     2.8390    -0.3260 hn         1 8MZ       0.478500
     18 H3          -5.2220     2.0150     0.0680 hn         1 8MZ       0.478500
     19 H4          -2.3370    -2.2750     0.6590 h4         1 8MZ       0.161000
     20 H5           3.0590     2.2620     0.3430 hn         1 8MZ       0.469000
     21 H6           4.5590    -1.4560    -0.1990 hn         1 8MZ       0.467000
     22 H7           2.1000    -2.9600    -0.3920 ha         1 8MZ       0.123000
     23 H8          -0.3670    -2.6110    -0.3260 ha         1 8MZ       0.115000
     24 N1          -4.2940     1.9780    -0.3370 nv         1 8MZ      -1.041900
@<TRIPOS>BOND
     1     1     2 ar  
     2     1    12 ar  
     3     1    16 1   
     4     2     3 1   
     5     2    13 ar  
     6     3     4 2   
     7     3    14 1   
     8     4    15 1   
     9     4    19 1   
    10     5    14 2   
    11     5    15 1   
    12     5    24 1   
    13     6     7 1   
    14     6    12 1   
    15     6    20 1   
    16     7     8 1   
    17     7     9 2   
    18     8    10 1   
    19     8    21 1   
    20    10    11 ar  
    21    10    12 ar  
    22    11    13 ar  
    23    11    22 1   
    24    13    23 1   
    25    17    24 1   
    26    18    24 1   
@<TRIPOS>SUBSTRUCTURE
     1 8MZ         1 TEMP              0 ****  ****    0 ROOT
