@<TRIPOS>MOLECULE
8MZ
   24    26     1     0     0
SMALL
abcg2


@<TRIPOS>ATOM
      1 C4           0.6110     0.6210     0.0430 ca         1 8MZ      -0.072000
      2 C5          -0.2230    -0.5020     0.0000 ca         1 8MZ      -0.120500
      3 C6          -1.6800    -0.3170     0.0090 cc         1 8MZ       0.391500
      4 C7          -2.6120    -1.3040     0.0780 cd         1 8MZ      -0.273000
      5 C8          -3.4800     0.9620    -0.0360 cd         1 8MZ       0.700300
      6 N2           3.0350     1.2960     0.0710 ns         1 8MZ      -0.503600
      7 C9           4.2310     0.6240     0.0440 c          1 8MZ       0.593000
      8 N3           3.8940    -0.7070    -0.0060 ns         1 8MZ      -0.503600
      9 O            5.3510     1.1020     0.0600 o          1 8MZ      -0.565000
     10 C2           2.5270    -0.8670    -0.0120 ca         1 8MZ       0.010600
     11 C1           1.7150    -1.9840    -0.0560 ca         1 8MZ      -0.118000
     12 C3           1.9750     0.4170     0.0370 ca         1 8MZ      -0.006400
     13 C            0.3410    -1.7820    -0.0500 ca         1 8MZ      -0.093000
     14 N           -2.1850     0.9600    -0.0520 nc         1 8MZ      -0.734000
     15 S           -4.1990    -0.6230     0.0590 ss         1 8MZ      -0.102400
     16 H1           0.1950     1.6180     0.0800 ha         1 8MZ       0.144000
     17 H2          -3.7840     2.9470     0.0320 hn         1 8MZ       0.478500
     18 H3          -5.1990     2.0320     0.1780 hn         1 8MZ       0.478500
     19 H4          -2.4780    -2.3710     0.1470 h4         1 8MZ       0.161000
     20 H5           2.9690     2.3010     0.1040 hn         1 8MZ       0.469000
     21 H6           4.5780    -1.4460    -0.0340 hn         1 8MZ       0.467000
     22 H7           2.1280    -2.9830    -0.0990 ha         1 8MZ       0.123000
     23 H8          -0.3010    -2.6510    -0.0930 ha         1 8MZ       0.115000
     24 N1          -4.2480     2.0700    -0.1470 nv         1 8MZ      -1.041900
@<TRIPOS>BOND
     1     1     2 ar  
     2     1    12 ar  
     3     1    16 1   
     4     2     3 1   
     5     2    13 ar  
     6     3     4 2   
     7     3    14 1   
     8     4    15 1   
     9     4    19 1   
    10     5    14 2   
    11     5    15 1   
    12     5    24 1   
    13     6     7 1   
    14     6    12 1   
    15     6    20 1   
    16     7     8 1   
    17     7     9 2   
    18     8    10 1   
    19     8    21 1   
    20    10    11 ar  
    21    10    12 ar  
    22    11    13 ar  
    23    11    22 1   
    24    13    23 1   
    25    17    24 1   
    26    18    24 1   
@<TRIPOS>SUBSTRUCTURE
     1 8MZ         1 TEMP              0 ****  ****    0 ROOT
