@<TRIPOS>MOLECULE
8N1
   63    65     1     0     0
SMALL
abcg2


@<TRIPOS>ATOM
      1 C1           4.9330    -0.0360     0.5810 ca         1 8N1      -0.103300
      2 C2           4.4350    -1.0910     1.3490 ca         1 8N1      -0.103000
      3 C3           5.1500    -2.2690     1.4700 ca         1 8N1      -0.114000
      4 C4           6.3720    -2.4210     0.8290 ca         1 8N1      -0.096000
      5 C5           6.8890    -1.3900     0.0470 ca         1 8N1      -0.048800
      6 C6           6.1570    -0.2010    -0.0520 ca         1 8N1      -0.090000
      7 C7           8.1840    -1.5480    -0.6560 ce         1 8N1      -0.061400
      8 C8           8.4760    -0.8600    -1.7620 c2         1 8N1      -0.309000
      9 C10          1.6990     1.7260     0.2030 c          1 8N1       0.659100
     10 C11          4.1500     1.2750     0.5120 c3         1 8N1       0.199700
     11 C12          4.2580     1.9440     1.8900 c3         1 8N1      -0.103600
     12 C13          4.6820     2.2260    -0.5620 c3         1 8N1      -0.103600
     13 C17         -0.7280     1.6830    -0.2570 ca         1 8N1       0.034000
     14 C18         -0.9360     3.0110    -0.6280 ca         1 8N1      -0.154000
     15 C19         -2.2330     3.4900    -0.6950 ca         1 8N1      -0.043000
     16 C20         -3.3120     2.6780    -0.4050 ca         1 8N1       0.026000
     17 C21         -3.1340     1.3350    -0.0430 ca         1 8N1       0.361000
     18 C22         -1.8200     0.8630     0.0160 ca         1 8N1      -0.224000
     19 C24         -4.1210    -0.8310     0.5800 c5         1 8N1       0.407500
     20 C25         -5.4120    -1.3780     1.1830 c5         1 8N1       0.094300
     21 C26         -5.2920    -2.8540     0.8430 c5         1 8N1       0.146300
     22 C27         -4.6710    -2.8110    -0.5580 c5         1 8N1       0.174300
     23 C29         -5.6900    -2.7830    -1.6850 c3         1 8N1       0.151600
     24 C9           9.1640    -2.5340    -0.0860 c3         1 8N1      -0.055900
     25 N1          -4.2170     0.5510     0.2780 nu         1 8N1      -0.960200
     26 N3           2.7670     0.8910     0.2060 ns         1 8N1      -0.522900
     27 N4           0.5380     1.0990    -0.2060 ns         1 8N1      -0.170000
     28 O2           1.7330     2.9000     0.5320 o          1 8N1      -0.619100
     29 O3          -3.8800    -1.6270    -0.5750 os         1 8N1      -0.465000
     30 O4          -5.5330    -1.1830     2.5620 oh         1 8N1      -0.709000
     31 O5          -6.4950    -3.5680     0.8500 oh         1 8N1      -0.708000
     32 O6          -4.9820    -2.6710    -2.8970 oh         1 8N1      -0.709000
     33 CL1         -4.9190     3.3380    -0.4870 cl         1 8N1      -0.221000
     34 H1           3.4870    -0.9900     1.8640 ha         1 8N1       0.118000
     35 H2           4.7550    -3.0780     2.0710 ha         1 8N1       0.114000
     36 H3           6.9090    -3.3530     0.9340 ha         1 8N1       0.115000
     37 H4           6.5770     0.6130    -0.6250 ha         1 8N1       0.118000
     38 H5           9.4340    -0.9740    -2.2510 ha         1 8N1       0.165500
     39 H6           7.7810    -0.1720    -2.2270 ha         1 8N1       0.165500
     40 H7           5.3110     2.0770     2.1420 hc         1 8N1       0.049867
     41 H8           3.7820     2.9210     1.8990 hc         1 8N1       0.049867
     42 H9           3.8010     1.3300     2.6660 hc         1 8N1       0.049867
     43 H10          4.6920     1.7530    -1.5450 hc         1 8N1       0.049867
     44 H11          4.0490     3.1090    -0.6160 hc         1 8N1       0.049867
     45 H12          5.6930     2.5640    -0.3310 hc         1 8N1       0.049867
     46 H13         -0.1160     3.6650    -0.8790 ha         1 8N1       0.144000
     47 H14         -2.4050     4.5180    -0.9850 ha         1 8N1       0.128000
     48 H15         -1.6340    -0.1710     0.2770 ha         1 8N1       0.119000
     49 H16         -3.3070    -0.9750     1.3000 h2         1 8N1       0.078700
     50 H17         -6.2730    -0.9560     0.6420 h1         1 8N1       0.054700
     51 H18         -4.5640    -3.3020     1.5360 h1         1 8N1       0.057700
     52 H19         -4.0090    -3.6690    -0.7160 h1         1 8N1       0.082700
     53 H20         -6.2790    -3.7060    -1.6470 h1         1 8N1       0.031700
     54 H21         -6.3890    -1.9470    -1.5470 h1         1 8N1       0.031700
     55 H22          9.3460    -2.3480     0.9750 hc         1 8N1       0.042033
     56 H23          8.7980    -3.5590    -0.1710 hc         1 8N1       0.042033
     57 H24         10.1170    -2.4840    -0.6100 hc         1 8N1       0.042033
     58 H25         -5.1060     0.8610    -0.0860 hn         1 8N1       0.484000
     59 H26          2.6670     0.0170    -0.2860 hn         1 8N1       0.309500
     60 H27          0.5440     0.0910    -0.2220 hn         1 8N1       0.146000
     61 H28         -5.7060    -0.2510     2.7280 ho         1 8N1       0.524000
     62 H29         -6.8060    -3.6330     1.7580 ho         1 8N1       0.523000
     63 H30         -5.6140    -2.7430    -3.6180 ho         1 8N1       0.502000
@<TRIPOS>BOND
     1     1     2 ar  
     2     1     6 ar  
     3     1    10 1   
     4     2     3 ar  
     5     2    34 1   
     6     3     4 ar  
     7     3    35 1   
     8     4     5 ar  
     9     4    36 1   
    10     5     6 ar  
    11     5     7 1   
    12     6    37 1   
    13     7     8 2   
    14     7    24 1   
    15     8    38 1   
    16     8    39 1   
    17     9    26 1   
    18     9    27 1   
    19     9    28 2   
    20    10    11 1   
    21    10    12 1   
    22    10    26 1   
    23    11    40 1   
    24    11    41 1   
    25    11    42 1   
    26    12    43 1   
    27    12    44 1   
    28    12    45 1   
    29    13    14 ar  
    30    13    18 ar  
    31    13    27 1   
    32    14    15 ar  
    33    14    46 1   
    34    15    16 ar  
    35    15    47 1   
    36    16    17 ar  
    37    16    33 1   
    38    17    18 ar  
    39    17    25 1   
    40    18    48 1   
    41    19    20 1   
    42    19    25 1   
    43    19    29 1   
    44    19    49 1   
    45    20    21 1   
    46    20    30 1   
    47    20    50 1   
    48    21    22 1   
    49    21    31 1   
    50    21    51 1   
    51    22    23 1   
    52    22    29 1   
    53    22    52 1   
    54    23    32 1   
    55    23    53 1   
    56    23    54 1   
    57    24    55 1   
    58    24    56 1   
    59    24    57 1   
    60    25    58 1   
    61    26    59 1   
    62    27    60 1   
    63    30    61 1   
    64    31    62 1   
    65    32    63 1   
@<TRIPOS>SUBSTRUCTURE
     1 8N1         1 TEMP              0 ****  ****    0 ROOT
