@<TRIPOS>MOLECULE
8N1
   63    65     1     0     0
SMALL
No Charge or Current Charge


@<TRIPOS>ATOM
      1 C1           5.1100     0.2930     0.8770 ca         1 8N1      -0.103300
      2 C2           4.8350    -0.1520     2.1910 ca         1 8N1      -0.103000
      3 C3           5.5000    -1.2630     2.7330 ca         1 8N1      -0.114000
      4 C4           6.4520    -1.9540     1.9720 ca         1 8N1      -0.096000
      5 C5           6.7460    -1.5410     0.6590 ca         1 8N1      -0.048800
      6 C6           6.0750    -0.4220     0.1220 ca         1 8N1      -0.090000
      7 C7           7.7600    -2.2790    -0.1520 ce         1 8N1      -0.061400
      8 C8           7.5750    -2.5170    -1.4690 c2         1 8N1      -0.309000
      9 C10          1.8450     2.0180     0.1490 c          1 8N1       0.659100
     10 C11          4.3480     1.5250     0.3270 c3         1 8N1       0.199700
     11 C12          4.6910     2.7510     1.2150 c3         1 8N1      -0.103600
     12 C13          4.7060     1.8520    -1.1490 c3         1 8N1      -0.103600
     13 C17         -0.7100     1.7760     0.1940 ca         1 8N1       0.034000
     14 C18         -1.0910     3.0880    -0.1630 ca         1 8N1      -0.154000
     15 C19         -2.4510     3.4280    -0.2710 ca         1 8N1      -0.043000
     16 C20         -3.4420     2.4650    -0.0300 ca         1 8N1       0.026000
     17 C21         -3.0730     1.1450     0.3150 ca         1 8N1       0.361000
     18 C22         -1.7110     0.8180     0.4350 ca         1 8N1      -0.224000
     19 C24         -3.9550    -0.9120    -0.4070 c5         1 8N1       0.407500
     20 C25         -4.2800    -2.2150     0.3870 c5         1 8N1       0.094300
     21 C26         -4.6300    -3.0860    -0.8470 c5         1 8N1       0.146300
     22 C27         -5.5550    -2.0840    -1.6450 c5         1 8N1       0.174300
     23 C29         -7.0800    -2.1970    -1.3330 c3         1 8N1       0.151600
     24 C9           9.0470    -2.6940     0.5410 c3         1 8N1      -0.055900
     25 N1          -4.0510     0.1780     0.5680 nu         1 8N1      -0.960200
     26 N3           2.9200     1.1950     0.4120 ns         1 8N1      -0.522900
     27 N4           0.6410     1.3580     0.3330 ns         1 8N1      -0.170000
     28 O2           1.9560     3.1820    -0.2050 o          1 8N1      -0.619100
     29 O3          -5.0890    -0.7530    -1.2580 os         1 8N1      -0.465000
     30 O4          -3.1970    -2.7440     1.1780 oh         1 8N1      -0.709000
     31 O5          -5.2330    -4.3350    -0.4740 oh         1 8N1      -0.708000
     32 O6          -7.8650    -1.3660    -2.2130 oh         1 8N1      -0.709000
     33 Cl1         -5.1430     2.9320    -0.1640 cl         1 8N1      -0.221000
     34 H1           4.0970     0.3630     2.8020 ha         1 8N1       0.118000
     35 H2           5.2730    -1.5900     3.7450 ha         1 8N1       0.114000
     36 H3           6.9540    -2.8180     2.4010 ha         1 8N1       0.115000
     37 H4           6.3310    -0.1170    -0.8880 ha         1 8N1       0.118000
     38 H5           8.3250    -3.0350    -2.0680 ha         1 8N1       0.165500
     39 H6           6.6650    -2.2170    -1.9880 ha         1 8N1       0.165500
     40 H7           5.7780     2.8780     1.2840 hc         1 8N1       0.049867
     41 H8           4.2780     3.6790     0.8050 hc         1 8N1       0.049867
     42 H9           4.3000     2.6320     2.2320 hc         1 8N1       0.049867
     43 H10          4.4590     1.0110    -1.8070 hc         1 8N1       0.049867
     44 H11          4.1580     2.7290    -1.5110 hc         1 8N1       0.049867
     45 H12          5.7740     2.0780    -1.2520 hc         1 8N1       0.049867
     46 H13         -0.3540     3.8610    -0.3540 ha         1 8N1       0.144000
     47 H14         -2.7360     4.4430    -0.5390 ha         1 8N1       0.128000
     48 H15         -1.4280    -0.1910     0.7210 ha         1 8N1       0.119000
     49 H16         -3.0180    -0.9730    -0.9800 h2         1 8N1       0.078700
     50 H17         -5.1690    -2.0710     1.0180 h1         1 8N1       0.054700
     51 H18         -3.7200    -3.2810    -1.4340 h1         1 8N1       0.057700
     52 H19         -5.4090    -2.2170    -2.7250 h1         1 8N1       0.082700
     53 H20         -7.3880    -3.2440    -1.4510 h1         1 8N1       0.031700
     54 H21         -7.2520    -1.9190    -0.2840 h1         1 8N1       0.031700
     55 H22          9.3060    -2.0060     1.3550 hc         1 8N1       0.042033
     56 H23          8.9580    -3.7000     0.9680 hc         1 8N1       0.042033
     57 H24          9.8950    -2.7040    -0.1550 hc         1 8N1       0.042033
     58 H25         -4.9770     0.6000     0.6270 hn         1 8N1       0.484000
     59 H26          2.6940     0.2490     0.6890 hn         1 8N1       0.309500
     60 H27          0.7370     0.3950     0.6230 hn         1 8N1       0.146000
     61 H28         -2.9600    -2.0280     1.8160 ho         1 8N1       0.524000
     62 H29         -4.6680    -4.6950     0.2510 ho         1 8N1       0.523000
     63 H30         -8.8040    -1.4430    -1.9210 ho         1 8N1       0.502000
@<TRIPOS>BOND
     1     1     2 ar  
     2     1     6 ar  
     3     1    10 1   
     4     2     3 ar  
     5     2    34 1   
     6     3     4 ar  
     7     3    35 1   
     8     4     5 ar  
     9     4    36 1   
    10     5     6 ar  
    11     5     7 1   
    12     6    37 1   
    13     7     8 2   
    14     7    24 1   
    15     8    38 1   
    16     8    39 1   
    17     9    26 1   
    18     9    27 1   
    19     9    28 2   
    20    10    11 1   
    21    10    12 1   
    22    10    26 1   
    23    11    40 1   
    24    11    41 1   
    25    11    42 1   
    26    12    43 1   
    27    12    44 1   
    28    12    45 1   
    29    13    14 ar  
    30    13    18 ar  
    31    13    27 1   
    32    14    15 ar  
    33    14    46 1   
    34    15    16 ar  
    35    15    47 1   
    36    16    17 ar  
    37    16    33 1   
    38    17    18 ar  
    39    17    25 1   
    40    18    48 1   
    41    19    20 1   
    42    19    25 1   
    43    19    29 1   
    44    19    49 1   
    45    20    21 1   
    46    20    30 1   
    47    20    50 1   
    48    21    22 1   
    49    21    31 1   
    50    21    51 1   
    51    22    23 1   
    52    22    29 1   
    53    22    52 1   
    54    23    32 1   
    55    23    53 1   
    56    23    54 1   
    57    24    55 1   
    58    24    56 1   
    59    24    57 1   
    60    25    58 1   
    61    26    59 1   
    62    27    60 1   
    63    30    61 1   
    64    31    62 1   
    65    32    63 1   
@<TRIPOS>SUBSTRUCTURE
     1 8N1         1 TEMP              0 ****  ****    0 ROOT
