@<TRIPOS>MOLECULE
8N2
   26    26     1     0     0
SMALL
abcg2


@<TRIPOS>ATOM
      1 O3          -4.8340    -0.3780     0.5300 o          1 8N2      -0.722500
      2 C4           0.1140    -1.8900     0.0170 ca         1 8N2      -0.144000
      3 C5          -0.0550    -0.5070    -0.1340 ca         1 8N2       0.017200
      4 C6           1.0830     0.2980    -0.1920 ca         1 8N2       0.051100
      5 C7           0.8080     2.3810     0.8340 c3         1 8N2       0.151900
      6 C8          -1.3830     0.1020    -0.2570 ce         1 8N2      -0.241200
      7 C9          -2.5210    -0.4310     0.1940 cf         1 8N2      -0.215200
      8 C10         -3.8680     0.2360     0.0300 c          1 8N2       0.695200
      9 O2          -3.9100     1.3260    -0.5750 o          1 8N2      -0.722500
     10 C3           1.3770    -2.4340     0.1280 ca         1 8N2      -0.087000
     11 C2           2.5110    -1.6270     0.0850 ca         1 8N2      -0.224000
     12 O1           0.9720     1.6430    -0.3700 os         1 8N2      -0.344100
     13 C1           2.3690    -0.2540    -0.0740 ca         1 8N2       0.113100
     14 O            3.3880     0.6210    -0.1300 os         1 8N2      -0.330100
     15 C            4.7060     0.1170    -0.0560 c3         1 8N2       0.151900
     16 H2          -0.7530    -2.5380     0.0270 ha         1 8N2       0.122000
     17 H3           0.7470     3.4330     0.5610 h1         1 8N2       0.030700
     18 H4          -0.1120     2.1000     1.3540 h1         1 8N2       0.030700
     19 H5           1.6520     2.2410     1.5130 h1         1 8N2       0.030700
     20 H6          -1.4350     1.0680    -0.7470 ha         1 8N2       0.208000
     21 H7          -2.5100    -1.3800     0.7230 ha         1 8N2       0.142000
     22 H8           1.4960    -3.5040     0.2370 ha         1 8N2       0.097000
     23 H9           3.4870    -2.0830     0.1770 ha         1 8N2       0.100000
     24 H10          4.9030    -0.3770     0.8990 h1         1 8N2       0.030033
     25 H11          4.9200    -0.5860    -0.8660 h1         1 8N2       0.030033
     26 H12          5.3690     0.9730    -0.1510 h1         1 8N2       0.030033
@<TRIPOS>BOND
     1     1     8 1   
     2     2     3 ar  
     3     2    10 ar  
     4     2    16 1   
     5     3     4 ar  
     6     3     6 1   
     7     4    12 1   
     8     4    13 ar  
     9     5    12 1   
    10     5    17 1   
    11     5    18 1   
    12     5    19 1   
    13     6     7 2   
    14     6    20 1   
    15     7     8 1   
    16     7    21 1   
    17     8     9 1   
    18    10    11 ar  
    19    10    22 1   
    20    11    13 ar  
    21    11    23 1   
    22    13    14 1   
    23    14    15 1   
    24    15    24 1   
    25    15    25 1   
    26    15    26 1   
@<TRIPOS>SUBSTRUCTURE
     1 8N2         1 TEMP              0 ****  ****    0 ROOT
