@<TRIPOS>MOLECULE
8N2
   26    26     1     0     0
SMALL
No Charge or Current Charge


@<TRIPOS>ATOM
      1 O3          -5.1260    -0.8170     0.2100 o          1 8N2      -0.722500
      2 C4          -0.0030    -1.9280    -0.1810 ca         1 8N2      -0.144000
      3 C5          -0.2260    -0.5430    -0.0480 ca         1 8N2       0.017200
      4 C6           0.8770     0.3360     0.1330 ca         1 8N2       0.051100
      5 C7           1.5380     2.7440     0.4560 c3         1 8N2       0.151900
      6 C8          -1.6280    -0.0180    -0.1110 ce         1 8N2      -0.241200
      7 C9          -2.8080    -0.6880     0.0840 cf         1 8N2      -0.215200
      8 C10         -4.1730    -0.0840     0.0020 c          1 8N2       0.695200
      9 O2          -4.2810     1.1030    -0.2670 o          1 8N2      -0.722500
     10 C3           1.2930    -2.4520    -0.1320 ca         1 8N2      -0.087000
     11 C2           2.3880    -1.6010     0.0500 ca         1 8N2      -0.224000
     12 O1           0.5750     1.6930     0.2610 os         1 8N2      -0.344100
     13 C1           2.2050    -0.2040     0.1840 ca         1 8N2       0.113100
     14 O            3.3030     0.6220     0.3610 os         1 8N2      -0.330100
     15 C            4.6550     0.1350     0.4200 c3         1 8N2       0.151900
     16 H2          -0.8350    -2.6080    -0.3360 ha         1 8N2       0.122000
     17 H3           1.0280     3.7130     0.5230 h1         1 8N2       0.030700
     18 H4           2.0980     2.5960     1.3880 h1         1 8N2       0.030700
     19 H5           2.2410     2.7940    -0.3860 h1         1 8N2       0.030700
     20 H6          -1.6970     1.0470    -0.3400 ha         1 8N2       0.208000
     21 H7          -2.7890    -1.7460     0.3300 ha         1 8N2       0.142000
     22 H8           1.4480    -3.5240    -0.2380 ha         1 8N2       0.097000
     23 H9           3.3770    -2.0490     0.0820 ha         1 8N2       0.100000
     24 H10          4.7820    -0.5640     1.2570 h1         1 8N2       0.030033
     25 H11          4.9270    -0.3750    -0.5130 h1         1 8N2       0.030033
     26 H12          5.3520     0.9690     0.5660 h1         1 8N2       0.030033
@<TRIPOS>BOND
     1     1     8 1   
     2     2     3 ar  
     3     2    10 ar  
     4     2    16 1   
     5     3     4 ar  
     6     3     6 1   
     7     4    12 1   
     8     4    13 ar  
     9     5    12 1   
    10     5    17 1   
    11     5    18 1   
    12     5    19 1   
    13     6     7 2   
    14     6    20 1   
    15     7     8 1   
    16     7    21 1   
    17     8     9 1   
    18    10    11 ar  
    19    10    22 1   
    20    11    13 ar  
    21    11    23 1   
    22    13    14 1   
    23    14    15 1   
    24    15    24 1   
    25    15    25 1   
    26    15    26 1   
@<TRIPOS>SUBSTRUCTURE
     1 8N2         1 TEMP              0 ****  ****    0 ROOT
