@<TRIPOS>MOLECULE
8N3
   44    44     1     0     0
SMALL
No Charge or Current Charge


@<TRIPOS>ATOM
      1 C1           5.8280     2.1250     1.2140 c3         1 8N3      -0.046800
      2 C2           5.1980     0.8300     0.7260 ca         1 8N3      -0.079300
      3 C3           5.8040    -0.4070     1.0140 ca         1 8N3      -0.104000
      4 CD1          5.2170    -1.6030     0.5660 ca         1 8N3      -0.110000
      5 CG1          4.0210    -1.5690    -0.1700 ca         1 8N3      -0.102000
      6 CB           3.4060    -0.3370    -0.4630 ca         1 8N3      -0.110300
      7 CA           2.1080    -0.2970    -1.2550 c3         1 8N3       0.159300
      8 N            0.9510    -0.3210    -0.3660 ns         1 8N3      -0.512900
      9 C8          -0.3420    -0.2410    -0.7950 c          1 8N3       0.646100
     10 O           -0.6540    -0.1510    -1.9700 o          1 8N3      -0.643100
     11 N2          -1.2410    -0.2810     0.2350 ns         1 8N3      -0.495900
     12 C9          -2.7130    -0.1880     0.0890 c3         1 8N3       0.048700
     13 C10         -3.2160     1.2350     0.4720 c3         1 8N3      -0.085400
     14 C11         -2.7350     2.3970    -0.4440 c3         1 8N3      -0.057700
     15 C12         -3.2880     2.2870    -1.8850 c3         1 8N3      -0.091100
     16 C13         -3.0960     3.7680     0.1720 c3         1 8N3      -0.091100
     17 C14         -3.4110    -1.2820     0.9550 c          1 8N3       0.584100
     18 O2          -2.8330    -1.9050     1.8410 o          1 8N3      -0.573100
     19 N3          -4.7530    -1.5050     0.6530 ns         1 8N3      -0.376400
     20 O3          -5.4560    -2.6550     1.1840 oh         1 8N3      -0.422100
     21 CG2          3.9980     0.8590    -0.0100 ca         1 8N3      -0.093000
     22 H1           5.4280     2.4090     2.1950 hc         1 8N3       0.042700
     23 H2           6.9160     2.0300     1.3110 hc         1 8N3       0.042700
     24 H3           5.6320     2.9510     0.5200 hc         1 8N3       0.042700
     25 H4           6.7290    -0.4430     1.5850 ha         1 8N3       0.111000
     26 H5           5.6890    -2.5570     0.7920 ha         1 8N3       0.114000
     27 H6           3.5720    -2.4990    -0.5100 ha         1 8N3       0.114000
     28 H7           2.0730     0.6160    -1.8650 h1         1 8N3       0.060700
     29 H8           2.0560    -1.1590    -1.9330 h1         1 8N3       0.060700
     30 H9           1.1140    -0.3940     0.6290 hn         1 8N3       0.308500
     31 H10         -0.8660    -0.4010     1.1670 hn         1 8N3       0.309500
     32 H11         -2.9870    -0.4030    -0.9510 h1         1 8N3       0.078700
     33 H12         -4.3130     1.2390     0.4830 hc         1 8N3       0.054700
     34 H13         -2.9030     1.4390     1.5030 hc         1 8N3       0.054700
     35 H14         -1.6400     2.3560    -0.5040 hc         1 8N3       0.050700
     36 H15         -4.3850     2.3040    -1.8850 hc         1 8N3       0.035367
     37 H16         -2.9350     3.1250    -2.4980 hc         1 8N3       0.035367
     38 H17         -2.9600     1.3630    -2.3710 hc         1 8N3       0.035367
     39 H18         -2.6540     3.8750     1.1690 hc         1 8N3       0.035367
     40 H19         -2.7170     4.5860    -0.4530 hc         1 8N3       0.035367
     41 H20         -4.1830     3.8820     0.2630 hc         1 8N3       0.035367
     42 H21         -5.1570    -1.0760    -0.1800 hn         1 8N3       0.337500
     43 H22         -6.2840    -2.2690     1.5570 ho         1 8N3       0.442000
     44 H23          3.5220     1.8130    -0.2300 ha         1 8N3       0.119000
@<TRIPOS>BOND
     1     1     2 1   
     2     1    22 1   
     3     1    23 1   
     4     1    24 1   
     5     2     3 ar  
     6     2    21 ar  
     7     3     4 ar  
     8     3    25 1   
     9     4     5 ar  
    10     4    26 1   
    11     5     6 ar  
    12     5    27 1   
    13     6     7 1   
    14     6    21 ar  
    15     7     8 1   
    16     7    28 1   
    17     7    29 1   
    18     8     9 1   
    19     8    30 1   
    20     9    10 2   
    21     9    11 1   
    22    11    12 1   
    23    11    31 1   
    24    12    13 1   
    25    12    17 1   
    26    12    32 1   
    27    13    14 1   
    28    13    33 1   
    29    13    34 1   
    30    14    15 1   
    31    14    16 1   
    32    14    35 1   
    33    15    36 1   
    34    15    37 1   
    35    15    38 1   
    36    16    39 1   
    37    16    40 1   
    38    16    41 1   
    39    17    18 2   
    40    17    19 1   
    41    19    20 1   
    42    19    42 1   
    43    20    43 1   
    44    21    44 1   
@<TRIPOS>SUBSTRUCTURE
     1 8N3         1 TEMP              0 ****  ****    0 ROOT
