@<TRIPOS>MOLECULE
8N3
   44    44     1     0     0
SMALL
bcc


@<TRIPOS>ATOM
      1 C1           5.5780     2.0680    -0.5730 c3         1 8N3      -0.046800
      2 C2           5.0930     0.7240    -0.1120 ca         1 8N3      -0.079300
      3 C3           5.8830    -0.0880     0.7000 ca         1 8N3      -0.122000
      4 CD1          5.4190    -1.3210     1.1340 ca         1 8N3      -0.128000
      5 CG1          4.1540    -1.7610     0.7650 ca         1 8N3      -0.120000
      6 CB           3.3510    -0.9690    -0.0480 ca         1 8N3      -0.110300
      7 CA           1.9790    -1.4340    -0.4590 c3         1 8N3       0.159300
      8 N            0.9680    -0.5230     0.0320 ns         1 8N3      -0.579900
      9 C8          -0.2730    -0.4710    -0.5130 c          1 8N3       0.780100
     10 O           -0.5820    -1.0750    -1.5350 o          1 8N3      -0.643100
     11 N2          -1.1580     0.3440     0.1310 ns         1 8N3      -0.562900
     12 C9          -2.5510     0.2950    -0.2250 c3         1 8N3       0.048700
     13 C10         -3.3510     1.2560     0.6560 c3         1 8N3      -0.085400
     14 C11         -2.9560     2.7290     0.5340 c3         1 8N3      -0.057700
     15 C12         -3.1490     3.2580    -0.8830 c3         1 8N3      -0.091100
     16 C13         -3.7680     3.5530     1.5280 c3         1 8N3      -0.091100
     17 C14         -3.1030    -1.1200    -0.0420 c          1 8N3       0.651100
     18 O2          -2.7690    -1.8390     0.8800 o          1 8N3      -0.573100
     19 N3          -4.0470    -1.4390    -0.9440 ns         1 8N3      -0.443400
     20 O3          -4.5720    -2.6970    -0.9610 oh         1 8N3      -0.383100
     21 CG2          3.8300     0.2660    -0.4770 ca         1 8N3      -0.111000
     22 H1           5.0750     2.8730    -0.0330 hc         1 8N3       0.042700
     23 H2           6.6490     2.1850    -0.4120 hc         1 8N3       0.042700
     24 H3           5.3790     2.2210    -1.6340 hc         1 8N3       0.042700
     25 H4           6.8710     0.2460     0.9930 ha         1 8N3       0.129000
     26 H5           6.0420    -1.9400     1.7660 ha         1 8N3       0.132000
     27 H6           3.7930    -2.7220     1.1090 ha         1 8N3       0.132000
     28 H7           1.9110    -1.4730    -1.5460 h1         1 8N3       0.060700
     29 H8           1.8120    -2.4530    -0.0940 h1         1 8N3       0.060700
     30 H9           1.1120    -0.1400     0.9530 hn         1 8N3       0.308500
     31 H10         -0.9380     0.6520     1.0650 hn         1 8N3       0.309500
     32 H11         -2.6670     0.5940    -1.2700 h1         1 8N3       0.078700
     33 H12         -4.4090     1.1510     0.3990 hc         1 8N3       0.054700
     34 H13         -3.2560     0.9360     1.7000 hc         1 8N3       0.054700
     35 H14         -1.8980     2.8330     0.7970 hc         1 8N3       0.050700
     36 H15         -4.1860     3.1370    -1.2080 hc         1 8N3       0.035367
     37 H16         -2.9090     4.3210    -0.9360 hc         1 8N3       0.035367
     38 H17         -2.5130     2.7510    -1.6100 hc         1 8N3       0.035367
     39 H18         -3.5920     3.2280     2.5550 hc         1 8N3       0.035367
     40 H19         -3.5080     4.6110     1.4670 hc         1 8N3       0.035367
     41 H20         -4.8380     3.4630     1.3290 hc         1 8N3       0.035367
     42 H21         -4.1560    -0.9280    -1.8080 hn         1 8N3       0.337500
     43 H22         -5.4160    -2.6420    -0.4960 ho         1 8N3       0.403000
     44 H23          3.2060     0.8840    -1.1140 ha         1 8N3       0.137000
@<TRIPOS>BOND
     1     1     2 1   
     2     1    22 1   
     3     1    23 1   
     4     1    24 1   
     5     2     3 ar  
     6     2    21 ar  
     7     3     4 ar  
     8     3    25 1   
     9     4     5 ar  
    10     4    26 1   
    11     5     6 ar  
    12     5    27 1   
    13     6     7 1   
    14     6    21 ar  
    15     7     8 1   
    16     7    28 1   
    17     7    29 1   
    18     8     9 1   
    19     8    30 1   
    20     9    10 2   
    21     9    11 1   
    22    11    12 1   
    23    11    31 1   
    24    12    13 1   
    25    12    17 1   
    26    12    32 1   
    27    13    14 1   
    28    13    33 1   
    29    13    34 1   
    30    14    15 1   
    31    14    16 1   
    32    14    35 1   
    33    15    36 1   
    34    15    37 1   
    35    15    38 1   
    36    16    39 1   
    37    16    40 1   
    38    16    41 1   
    39    17    18 2   
    40    17    19 1   
    41    19    20 1   
    42    19    42 1   
    43    20    43 1   
    44    21    44 1   
@<TRIPOS>SUBSTRUCTURE
     1 8N3         1 TEMP              0 ****  ****    0 ROOT
