@<TRIPOS>MOLECULE
8N4
   62    65     1     0     0
SMALL
abcg2


@<TRIPOS>ATOM
      1 C10          3.0150     2.5650    -2.2200 c6         1 8N4      -0.075900
      2 C13          2.2260     3.6000     0.4120 c6         1 8N4      -0.068400
      3 C17          0.7760    -3.0510     0.3370 ca         1 8N4      -0.043000
      4 C20         -1.6280    -4.2930    -0.4510 ca         1 8N4      -0.142600
      5 C21         -0.4500    -5.0200    -0.3130 ca         1 8N4      -0.061000
      6 C22          0.7390    -4.4220     0.0740 ca         1 8N4      -0.160000
      7 C28         -0.6560    -0.1790    -1.7760 ca         1 8N4      -0.157000
      8 C01          5.4550    -1.9350     1.5000 ca         1 8N4      -0.116000
      9 C02          6.2880    -0.8570     1.7630 ca         1 8N4      -0.086000
     10 C03          5.7570     0.4210     1.7780 ca         1 8N4      -0.156000
     11 C04          4.3940     0.5980     1.5410 ca         1 8N4       0.360300
     12 N05          3.6070    -0.4400     1.2940 nb         1 8N4      -0.679000
     13 C06          4.1160    -1.6650     1.2660 ca         1 8N4       0.301500
     14 C07          3.7510     1.9540     1.5510 c3         1 8N4      -0.120700
     15 C08          2.9440     2.2570     0.2860 c6         1 8N4      -0.059700
     16 C09          3.8220     2.2450    -0.9650 c6         1 8N4      -0.068400
     17 C11          2.2960     3.9030    -2.0870 c6         1 8N4      -0.071400
     18 C12          1.4190     3.9240    -0.8400 c6         1 8N4      -0.075900
     19 C14          3.1650    -2.7840     0.9470 c          1 8N4       0.504600
     20 O15          3.5350    -3.9460     0.9190 o          1 8N4      -0.601100
     21 N16          1.9140    -2.3450     0.7020 ns         1 8N4      -0.112000
     22 C18         -0.4100    -2.3090     0.2170 ca         1 8N4       0.146000
     23 C19         -1.5840    -2.9320    -0.1750 ca         1 8N4      -0.076000
     24 C23         -2.9250    -4.9630    -0.8770 c          1 8N4       0.714600
     25 O24         -2.8780    -6.1910    -1.0790 o          1 8N4      -0.715500
     26 O25         -3.9240    -4.2250    -0.9880 o          1 8N4      -0.715500
     27 N26         -0.3730    -0.9210     0.5180 nu         1 8N4      -0.969000
     28 C27         -0.8160     0.0160    -0.4010 ca         1 8N4       0.347000
     29 C29         -1.0870     0.7930    -2.6580 ca         1 8N4      -0.051000
     30 C30         -1.6760     1.9770    -2.2290 ca         1 8N4      -0.216000
     31 C31         -1.8160     2.1570    -0.8620 ca         1 8N4       0.165100
     32 C32         -1.4020     1.1980     0.0480 ca         1 8N4      -0.203000
     33 O33         -2.3630     3.2790    -0.2610 os         1 8N4      -0.413100
     34 C34         -2.8850     4.2980    -0.9460 c3         1 8N4       0.524000
     35 F35         -3.9020     3.9330    -1.7300 f          1 8N4      -0.113000
     36 F36         -3.3410     5.1720    -0.0620 f          1 8N4      -0.113000
     37 F37         -1.9940     4.9220    -1.7180 f          1 8N4      -0.113000
     38 H1           3.6670     2.5660    -3.0970 hc         1 8N4       0.043700
     39 H2           2.2730     1.7740    -2.3810 hc         1 8N4       0.043700
     40 H3           1.5740     3.5910     1.2900 hc         1 8N4       0.033450
     41 H4           2.9690     4.3900     0.5820 hc         1 8N4       0.033450
     42 H5          -0.4560    -6.0830    -0.5140 ha         1 8N4       0.135000
     43 H6           1.6300    -5.0220     0.1630 ha         1 8N4       0.129000
     44 H8           5.8330    -2.9460     1.4730 ha         1 8N4       0.147000
     45 H9           7.3430    -1.0140     1.9450 ha         1 8N4       0.116000
     46 H10          6.3880     1.2800     1.9680 ha         1 8N4       0.117000
     47 H11          3.0880     2.0170     2.4200 hc         1 8N4       0.048700
     48 H12          4.5180     2.7210     1.6890 hc         1 8N4       0.048700
     49 H13          2.1800     1.4770     0.1730 hc         1 8N4       0.076700
     50 H14          4.3150     1.2760    -1.0770 hc         1 8N4       0.033450
     51 H15          4.6200     2.9890    -0.8470 hc         1 8N4       0.033450
     52 H16          3.0370     4.7080    -2.0250 hc         1 8N4       0.032700
     53 H17          1.6920     4.0990    -2.9770 hc         1 8N4       0.032700
     54 H18          0.6270     3.1790    -0.9530 hc         1 8N4       0.043700
     55 H19          0.9260     4.8930    -0.7330 hc         1 8N4       0.043700
     56 H20          1.7920    -1.3390     0.7840 hn         1 8N4       0.189000
     57 H21         -2.4860    -2.3380    -0.2640 ha         1 8N4       0.137000
     58 H23         -0.5960    -0.7000     1.4790 hn         1 8N4       0.465000
     59 H24         -0.9580     0.6330    -3.7210 ha         1 8N4       0.113000
     60 H25         -1.9870     2.7040    -2.9640 ha         1 8N4       0.123000
     61 H26         -1.5400     1.3730     1.1080 ha         1 8N4       0.127000
     62 H7          -0.1980    -1.0840    -2.1520 ha         1 8N4       0.142000
@<TRIPOS>BOND
     1     1    16 1   
     2     1    17 1   
     3     1    38 1   
     4     1    39 1   
     5     2    15 1   
     6     2    18 1   
     7     2    40 1   
     8     2    41 1   
     9     3     6 ar  
    10     3    21 1   
    11     3    22 ar  
    12     4     5 ar  
    13     4    23 ar  
    14     4    24 1   
    15     5     6 ar  
    16     5    42 1   
    17     6    43 1   
    18     7    28 ar  
    19     7    29 ar  
    20     7    62 1   
    21     8     9 ar  
    22     8    13 ar  
    23     8    44 1   
    24     9    10 ar  
    25     9    45 1   
    26    10    11 ar  
    27    10    46 1   
    28    11    12 ar  
    29    11    14 1   
    30    12    13 ar  
    31    13    19 1   
    32    14    15 1   
    33    14    47 1   
    34    14    48 1   
    35    15    16 1   
    36    15    49 1   
    37    16    50 1   
    38    16    51 1   
    39    17    18 1   
    40    17    52 1   
    41    17    53 1   
    42    18    54 1   
    43    18    55 1   
    44    19    20 2   
    45    19    21 1   
    46    21    56 1   
    47    22    23 ar  
    48    22    27 1   
    49    23    57 1   
    50    24    25 1   
    51    24    26 1   
    52    27    28 1   
    53    27    58 1   
    54    28    32 ar  
    55    29    30 ar  
    56    29    59 1   
    57    30    31 ar  
    58    30    60 1   
    59    31    32 ar  
    60    31    33 1   
    61    32    61 1   
    62    33    34 1   
    63    34    35 1   
    64    34    36 1   
    65    34    37 1   
@<TRIPOS>SUBSTRUCTURE
     1 8N4         1 TEMP              0 ****  ****    0 ROOT
