@<TRIPOS>MOLECULE
8N4
   62    65     1     0     0
SMALL
No Charge or Current Charge


@<TRIPOS>ATOM
      1 C10          3.4360     2.5480    -2.4290 c6         1 8N4      -0.075900
      2 C13          2.1280     3.6670     0.0110 c6         1 8N4      -0.068400
      3 C17          0.7620    -3.2390     0.2810 ca         1 8N4      -0.043000
      4 C20         -1.5020    -4.6300    -0.7330 ca         1 8N4      -0.142600
      5 C21         -0.3020    -5.3160    -0.4460 ca         1 8N4      -0.061000
      6 C22          0.8180    -4.6300     0.0540 ca         1 8N4      -0.160000
      7 C28         -1.5120    -0.2250    -1.7930 ca         1 8N4      -0.157000
      8 C01          5.3300    -1.7640     1.9860 ca         1 8N4      -0.116000
      9 C02          6.1100    -0.6280     2.2640 ca         1 8N4      -0.086000
     10 C03          5.5240     0.6390     2.1060 ca         1 8N4      -0.156000
     11 C04          4.1860     0.7280     1.6810 ca         1 8N4       0.360300
     12 N05          3.4370    -0.3650     1.4220 nb         1 8N4      -0.679000
     13 C06          3.9930    -1.6050     1.5600 ca         1 8N4       0.301500
     14 C07          3.4920     2.0750     1.5010 c3         1 8N4      -0.120700
     15 C08          2.9110     2.3260     0.0730 c6         1 8N4      -0.059700
     16 C09          4.0200     2.2940    -1.0180 c6         1 8N4      -0.068400
     17 C11          2.6580     3.8850    -2.4810 c6         1 8N4      -0.071400
     18 C12          1.5490     3.9240    -1.4020 c6         1 8N4      -0.075900
     19 C14          3.1340    -2.8290     1.2330 c          1 8N4       0.504600
     20 O15          3.5180    -3.9870     1.3960 o          1 8N4      -0.601100
     21 N16          1.8790    -2.4880     0.7440 ns         1 8N4      -0.112000
     22 C18         -0.4320    -2.5380    -0.0090 ca         1 8N4       0.146000
     23 C19         -1.5500    -3.2350    -0.5060 ca         1 8N4      -0.076000
     24 C23         -2.7140    -5.3730    -1.2680 c          1 8N4       0.714600
     25 O24         -2.6330    -6.5820    -1.4320 o          1 8N4      -0.715500
     26 O25         -3.7280    -4.7360    -1.5170 o          1 8N4      -0.715500
     27 N26         -0.5130    -1.1550     0.2370 nu         1 8N4      -0.969000
     28 C27         -1.0780    -0.0880    -0.4640 ca         1 8N4       0.347000
     29 C29         -2.0610     0.8730    -2.4740 ca         1 8N4      -0.051000
     30 C30         -2.1720     2.1150    -1.8270 ca         1 8N4      -0.216000
     31 C31         -1.7230     2.2620    -0.4960 ca         1 8N4       0.165100
     32 C32         -1.1740     1.1570     0.1700 ca         1 8N4      -0.203000
     33 O33         -1.7900     3.4500     0.2040 os         1 8N4      -0.413100
     34 C34         -2.3600     4.6640    -0.3220 c3         1 8N4       0.524000
     35 F35         -3.6660     4.5150    -0.6460 f          1 8N4      -0.113000
     36 F36         -2.2940     5.6550     0.5940 f          1 8N4      -0.113000
     37 F37         -1.7060     5.1040    -1.4220 f          1 8N4      -0.113000
     38 H1           4.2450     2.5600    -3.1710 hc         1 8N4       0.043700
     39 H2           2.7680     1.7210    -2.7070 hc         1 8N4       0.043700
     40 H3           1.3080     3.6570     0.7430 hc         1 8N4       0.033450
     41 H4           2.7880     4.4990     0.2940 hc         1 8N4       0.033450
     42 H5          -0.2300    -6.3900    -0.6120 ha         1 8N4       0.135000
     43 H6           1.7250    -5.1960     0.2470 ha         1 8N4       0.129000
     44 H8           5.7570    -2.7580     2.0920 ha         1 8N4       0.147000
     45 H9           7.1430    -0.7270     2.5910 ha         1 8N4       0.116000
     46 H10          6.0970     1.5380     2.3100 ha         1 8N4       0.117000
     47 H11          2.6830     2.1450     2.2380 hc         1 8N4       0.048700
     48 H12          4.1880     2.8830     1.7560 hc         1 8N4       0.048700
     49 H13          2.2000     1.5120    -0.1290 hc         1 8N4       0.076700
     50 H14          4.5330     1.3230    -1.0110 hc         1 8N4       0.033450
     51 H15          4.7850     3.0510    -0.7950 hc         1 8N4       0.033450
     52 H16          3.3510     4.7240    -2.3300 hc         1 8N4       0.032700
     53 H17          2.2140     4.0210    -3.4760 hc         1 8N4       0.032700
     54 H18          0.7850     3.1690    -1.6330 hc         1 8N4       0.043700
     55 H19          1.0440     4.8990    -1.4250 hc         1 8N4       0.043700
     56 H20          1.7460    -1.4870     0.6730 hn         1 8N4       0.189000
     57 H21         -2.4680    -2.6880    -0.6990 ha         1 8N4       0.137000
     58 H23         -0.0390    -0.8550     1.0880 hn         1 8N4       0.465000
     59 H24         -2.3970     0.7620    -3.5030 ha         1 8N4       0.113000
     60 H25         -2.6020     2.9450    -2.3790 ha         1 8N4       0.123000
     61 H26         -0.8270     1.2740     1.1920 ha         1 8N4       0.127000
     62 H7          -1.4130    -1.1760    -2.3050 ha         1 8N4       0.142000
@<TRIPOS>BOND
     1     1    16 1   
     2     1    17 1   
     3     1    38 1   
     4     1    39 1   
     5     2    15 1   
     6     2    18 1   
     7     2    40 1   
     8     2    41 1   
     9     3     6 ar  
    10     3    21 1   
    11     3    22 ar  
    12     4     5 ar  
    13     4    23 ar  
    14     4    24 1   
    15     5     6 ar  
    16     5    42 1   
    17     6    43 1   
    18     7    28 ar  
    19     7    29 ar  
    20     7    62 1   
    21     8     9 ar  
    22     8    13 ar  
    23     8    44 1   
    24     9    10 ar  
    25     9    45 1   
    26    10    11 ar  
    27    10    46 1   
    28    11    12 ar  
    29    11    14 1   
    30    12    13 ar  
    31    13    19 1   
    32    14    15 1   
    33    14    47 1   
    34    14    48 1   
    35    15    16 1   
    36    15    49 1   
    37    16    50 1   
    38    16    51 1   
    39    17    18 1   
    40    17    52 1   
    41    17    53 1   
    42    18    54 1   
    43    18    55 1   
    44    19    20 2   
    45    19    21 1   
    46    21    56 1   
    47    22    23 ar  
    48    22    27 1   
    49    23    57 1   
    50    24    25 1   
    51    24    26 1   
    52    27    28 1   
    53    27    58 1   
    54    28    32 ar  
    55    29    30 ar  
    56    29    59 1   
    57    30    31 ar  
    58    30    60 1   
    59    31    32 ar  
    60    31    33 1   
    61    32    61 1   
    62    33    34 1   
    63    34    35 1   
    64    34    36 1   
    65    34    37 1   
@<TRIPOS>SUBSTRUCTURE
     1 8N4         1 TEMP              0 ****  ****    0 ROOT
