@<TRIPOS>MOLECULE
8N5
   22    24     1     0     0
SMALL
No Charge or Current Charge


@<TRIPOS>ATOM
      1 C4          -1.5700    -0.7680     0.1810 ca         1 8N5      -0.046300
      2 C5          -2.9660    -0.9540     0.1390 ca         1 8N5      -0.104000
      3 C6          -0.6690    -1.9490     0.5510 c6         1 8N5       0.068900
      4 N1           2.5380     1.6870     0.2530 ns         1 8N5      -0.361300
      5 C7           1.4370    -0.2260    -0.0400 cc         1 8N5      -0.173600
      6 C8           0.4280     0.7150     0.0070 cd         1 8N5       0.144800
      7 C9           2.7840     0.3480     0.0990 c          1 8N5       0.574200
      8 O            3.8770    -0.1980     0.0510 o          1 8N5      -0.527000
      9 N            1.1410     1.9000     0.1540 na         1 8N5      -0.512200
     10 C3          -1.0280     0.5220    -0.0070 ca         1 8N5      -0.059800
     11 C2          -1.8950     1.6160    -0.2110 ca         1 8N5      -0.080000
     12 C1          -3.2860     1.4230    -0.2570 ca         1 8N5      -0.112000
     13 S            0.9970    -1.9230    -0.2520 ss         1 8N5      -0.194600
     14 C           -3.8220     0.1360    -0.0880 ca         1 8N5      -0.089000
     15 H1          -3.3910    -1.9420     0.3000 ha         1 8N5       0.119000
     16 H2          -0.5110    -1.9440     1.6390 h1         1 8N5       0.081700
     17 H3          -1.1550    -2.8990     0.2890 h1         1 8N5       0.081700
     18 H4           3.2440     2.3740    -0.0110 hn         1 8N5       0.344500
     19 H6          -1.4940     2.6160    -0.3560 ha         1 8N5       0.120000
     20 H7          -3.9470     2.2700    -0.4260 ha         1 8N5       0.120000
     21 H8          -4.8990    -0.0130    -0.1190 ha         1 8N5       0.119000
     22 H5           0.7980     2.8300     0.4150 hn         1 8N5       0.485000
@<TRIPOS>BOND
     1     1     2 ar  
     2     1     3 1   
     3     1    10 ar  
     4     2    14 ar  
     5     2    15 1   
     6     3    13 1   
     7     3    16 1   
     8     3    17 1   
     9     4     7 1   
    10     4     9 1   
    11     4    18 1   
    12     5     6 2   
    13     5     7 1   
    14     5    13 1   
    15     6     9 1   
    16     6    10 1   
    17     7     8 2   
    18     9    22 1   
    19    10    11 ar  
    20    11    12 ar  
    21    11    19 1   
    22    12    14 ar  
    23    12    20 1   
    24    14    21 1   
@<TRIPOS>SUBSTRUCTURE
     1 8N5         1 TEMP              0 ****  ****    0 ROOT
