@<TRIPOS>MOLECULE
8N5
   22    24     1     0     0
SMALL
abcg2


@<TRIPOS>ATOM
      1 C4          -1.5260    -0.7290     0.2370 ca         1 8N5      -0.046300
      2 C5          -2.8970    -0.9220     0.1330 ca         1 8N5      -0.104000
      3 C6          -0.6250    -1.8670     0.6340 c6         1 8N5       0.068900
      4 N1           2.4260     1.6250     0.2520 ns         1 8N5      -0.361300
      5 C7           1.3370    -0.2800    -0.0910 cc         1 8N5      -0.173600
      6 C8           0.4340     0.7230     0.0670 cd         1 8N5       0.144800
      7 C9           2.6610     0.2990    -0.0300 c          1 8N5       0.574200
      8 O            3.7630    -0.2080    -0.1940 o          1 8N5      -0.527000
      9 N            1.0830     1.9200     0.1840 na         1 8N5      -0.512200
     10 C3          -1.0070     0.5610     0.0390 ca         1 8N5      -0.059800
     11 C2          -1.8620     1.6230    -0.2480 ca         1 8N5      -0.080000
     12 C1          -3.2300     1.4160    -0.3310 ca         1 8N5      -0.112000
     13 S            0.8950    -1.9410    -0.3630 ss         1 8N5      -0.194600
     14 C           -3.7470     0.1410    -0.1450 ca         1 8N5      -0.089000
     15 H1          -3.3080    -1.9130     0.2820 ha         1 8N5       0.119000
     16 H2          -0.3390    -1.7780     1.6850 h1         1 8N5       0.081700
     17 H3          -1.1290    -2.8240     0.5050 h1         1 8N5       0.081700
     18 H4           3.0720     2.3620     0.0060 hn         1 8N5       0.344500
     19 H6          -1.4580     2.6110    -0.4270 ha         1 8N5       0.120000
     20 H7          -3.8880     2.2450    -0.5520 ha         1 8N5       0.120000
     21 H8          -4.8130    -0.0280    -0.2160 ha         1 8N5       0.119000
     22 H5           0.7690     2.5820     0.8850 hn         1 8N5       0.485000
@<TRIPOS>BOND
     1     1     2 ar  
     2     1     3 1   
     3     1    10 ar  
     4     2    14 ar  
     5     2    15 1   
     6     3    13 1   
     7     3    16 1   
     8     3    17 1   
     9     4     7 1   
    10     4     9 1   
    11     4    18 1   
    12     5     6 2   
    13     5     7 1   
    14     5    13 1   
    15     6     9 1   
    16     6    10 1   
    17     7     8 2   
    18     9    22 1   
    19    10    11 ar  
    20    11    12 ar  
    21    11    19 1   
    22    12    14 ar  
    23    12    20 1   
    24    14    21 1   
@<TRIPOS>SUBSTRUCTURE
     1 8N5         1 TEMP              0 ****  ****    0 ROOT
