@<TRIPOS>MOLECULE
8N6
   45    47     1     0     0
SMALL
bcc


@<TRIPOS>ATOM
      1 O4           6.9900    -1.0230    -0.8550 o          1 8N6      -0.562500
      2 C4           6.2830    -0.2130    -0.3110 c          1 8N6       0.716500
      3 N3           6.6680     1.0570     0.0150 ns         1 8N6      -0.617500
      4 C5           4.8440    -0.4790     0.0870 c5         1 8N6      -0.084600
      5 S1           4.2130     1.0620     0.8160 ss         1 8N6      -0.211700
      6 C2           5.7540     1.8960     0.6060 c          1 8N6       0.735100
      7 O2           5.9620     3.0320     0.9340 o          1 8N6      -0.540500
      8 C6           4.0020    -0.9430    -1.1030 c3         1 8N6       0.001900
      9 C21         -6.8490    -0.1930    -0.6330 ca         1 8N6      -0.090000
     10 C7           2.5740    -1.1960    -0.7080 ca         1 8N6      -0.142300
     11 C12          1.5750    -0.2750    -0.9890 ca         1 8N6      -0.077000
     12 C11          0.2560    -0.4860    -0.6020 ca         1 8N6      -0.190500
     13 C10         -0.0800    -1.6460     0.0900 ca         1 8N6       0.157100
     14 C9           0.9160    -2.5820     0.3810 ca         1 8N6      -0.190500
     15 C8           2.2200    -2.3530    -0.0130 ca         1 8N6      -0.077000
     16 O13         -1.3240    -1.9500     0.5100 os         1 8N6      -0.326900
     17 C14         -2.3840    -1.0590     0.2130 c3         1 8N6       0.143400
     18 C15         -3.6580    -1.6440     0.7980 c3         1 8N6      -0.127700
     19 C24         -7.7240     2.8880    -1.3770 c3         1 8N6      -0.088100
     20 C20         -6.9070     1.0040     0.0710 ca         1 8N6      -0.191600
     21 C19         -5.8780     1.2400     0.9780 ca         1 8N6       0.408200
     22 N18         -4.8730     0.4060     1.2040 nb         1 8N6      -0.671000
     23 C22         -5.8020    -1.0720    -0.4080 ca         1 8N6      -0.236300
     24 C17         -4.8260    -0.7390     0.5260 ca         1 8N6       0.404600
     25 H1           7.6000     1.3930    -0.1970 hn         1 8N6       0.351500
     26 H2           4.8500    -1.2490     0.8640 h1         1 8N6       0.115700
     27 H3           4.0490    -0.1940    -1.8950 hc         1 8N6       0.066700
     28 H4           4.4550    -1.8570    -1.4920 hc         1 8N6       0.066700
     29 H5          -7.6210    -0.4410    -1.3520 ha         1 8N6       0.137000
     30 H6           1.8200     0.6320    -1.5300 ha         1 8N6       0.132500
     31 H7          -0.4850     0.2620    -0.8470 ha         1 8N6       0.143500
     32 H8           0.6560    -3.4870     0.9150 ha         1 8N6       0.143500
     33 H9           2.9760    -3.0950     0.2180 ha         1 8N6       0.132500
     34 H10         -2.1930    -0.0720     0.6480 h1         1 8N6       0.044700
     35 H11         -2.4870    -0.9330    -0.8710 h1         1 8N6       0.044700
     36 H12         -3.8420    -2.6300     0.3680 hc         1 8N6       0.068700
     37 H13         -3.5380    -1.7690     1.8770 hc         1 8N6       0.068700
     38 H14         -6.7880     3.4370    -1.2660 hc         1 8N6       0.036700
     39 H15         -7.6520     2.2890    -2.2860 hc         1 8N6       0.036700
     40 H16         -8.5240     3.6150    -1.5180 hc         1 8N6       0.036700
     41 H17         -8.1000     2.6430     0.7290 hc         1 8N6       0.048700
     42 H18         -8.9510     1.4960    -0.2830 hc         1 8N6       0.048700
     43 H19         -5.8780     2.1580     1.5590 h4         1 8N6       0.019100
     44 H20         -5.7430    -2.0100    -0.9450 ha         1 8N6       0.142000
     45 C23         -7.9960     2.0110    -0.1560 c3         1 8N6      -0.028100
@<TRIPOS>BOND
     1     1     2 2   
     2     2     3 1   
     3     2     4 1   
     4     3     6 1   
     5     3    25 1   
     6     4     5 1   
     7     4     8 1   
     8     4    26 1   
     9     5     6 1   
    10     6     7 2   
    11     8    10 1   
    12     8    27 1   
    13     8    28 1   
    14     9    20 ar  
    15     9    23 ar  
    16     9    29 1   
    17    10    11 ar  
    18    10    15 ar  
    19    11    12 ar  
    20    11    30 1   
    21    12    13 ar  
    22    12    31 1   
    23    13    14 ar  
    24    13    16 1   
    25    14    15 ar  
    26    14    32 1   
    27    15    33 1   
    28    16    17 1   
    29    17    18 1   
    30    17    34 1   
    31    17    35 1   
    32    18    24 1   
    33    18    36 1   
    34    18    37 1   
    35    19    38 1   
    36    19    39 1   
    37    19    40 1   
    38    19    45 1   
    39    20    21 ar  
    40    20    45 1   
    41    21    22 ar  
    42    21    43 1   
    43    22    24 ar  
    44    23    24 ar  
    45    23    44 1   
    46    41    45 1   
    47    42    45 1   
@<TRIPOS>SUBSTRUCTURE
     1 8N6         1 TEMP              0 ****  ****    0 ROOT
