@<TRIPOS>MOLECULE
8N6
   45    47     1     0     0
SMALL
No Charge or Current Charge


@<TRIPOS>ATOM
      1 O4           7.2080    -1.2580    -0.8280 o          1 8N6      -0.487000
      2 C4           6.4860    -0.3990    -0.3500 c          1 8N6       0.574000
      3 N3           6.8860     0.8800    -0.1310 ns         1 8N6      -0.483500
      4 C5           5.0110    -0.5190     0.0960 c5         1 8N6      -0.036700
      5 S1           4.4750     1.1660     0.7130 ss         1 8N6      -0.259600
      6 C2           6.1070     1.8590     0.3850 c          1 8N6       0.592600
      7 O2           6.4670     3.0060     0.5830 o          1 8N6      -0.465000
      8 C6           4.0950    -0.9980    -1.0570 c3         1 8N6       0.001900
      9 C21         -6.7490    -0.0700    -0.9230 ca         1 8N6      -0.072000
     10 C7           2.6440    -1.2000    -0.6320 ca         1 8N6      -0.142300
     11 C12          1.6500    -0.2810    -1.0230 ca         1 8N6      -0.059000
     12 C11          0.3140    -0.4670    -0.6270 ca         1 8N6      -0.172500
     13 C10         -0.0390    -1.5800     0.1660 ca         1 8N6       0.157100
     14 C9           0.9520    -2.4950     0.5540 ca         1 8N6      -0.172500
     15 C8           2.2880    -2.3090     0.1580 ca         1 8N6      -0.059000
     16 O13         -1.3330    -1.8160     0.5850 os         1 8N6      -0.350100
     17 C14         -2.4190    -0.9390     0.2430 c3         1 8N6       0.166600
     18 C15         -3.6960    -1.5140     0.8770 c3         1 8N6      -0.127700
     19 C24         -7.9840     2.9590    -1.2280 c3         1 8N6      -0.088100
     20 C20         -7.1070     0.9190     0.0100 ca         1 8N6      -0.126300
     21 C19         -6.3280     1.0550     1.1780 ca         1 8N6       0.342900
     22 N18         -5.2510     0.2800     1.4470 nb         1 8N6      -0.671000
     23 C22         -5.6320    -0.8750    -0.6460 ca         1 8N6      -0.153000
     24 C17         -4.9130    -0.6710     0.5470 ca         1 8N6       0.339300
     25 H1           7.8360     1.1200    -0.3720 hn         1 8N6       0.351500
     26 H2           4.9770    -1.2370     0.9240 h1         1 8N6       0.115700
     27 H3           4.1500    -0.2840    -1.8890 hc         1 8N6       0.066700
     28 H4           4.4820    -1.9430    -1.4590 hc         1 8N6       0.066700
     29 H5          -7.3190    -0.2100    -1.8390 ha         1 8N6       0.119000
     30 H6           1.9130     0.5830    -1.6310 ha         1 8N6       0.114500
     31 H7          -0.4280     0.2600    -0.9430 ha         1 8N6       0.125500
     32 H8           0.6830    -3.3530     1.1640 ha         1 8N6       0.125500
     33 H9           3.0440    -3.0270     0.4670 ha         1 8N6       0.114500
     34 H10         -2.2410     0.0730     0.6310 h1         1 8N6       0.044700
     35 H11         -2.5440    -0.8830    -0.8470 h1         1 8N6       0.044700
     36 H12         -3.8460    -2.5390     0.5170 hc         1 8N6       0.068700
     37 H13         -3.5600    -1.5810     1.9630 hc         1 8N6       0.068700
     38 H14         -7.1700     3.5860    -0.8440 hc         1 8N6       0.036700
     39 H15         -7.6790     2.5530    -2.1990 hc         1 8N6       0.036700
     40 H16         -8.8640     3.5950    -1.3820 hc         1 8N6       0.036700
     41 H17         -8.6570     2.2630     0.7040 hc         1 8N6       0.048700
     42 H18         -9.1450     1.2360    -0.6330 hc         1 8N6       0.048700
     43 H19         -6.5720     1.8120     1.9240 h4         1 8N6       0.019100
     44 H20         -5.3250    -1.6480    -1.3450 ha         1 8N6       0.124000
     45 C23         -8.3070     1.8240    -0.2390 c3         1 8N6      -0.028100
@<TRIPOS>BOND
     1     1     2 2   
     2     2     3 1   
     3     2     4 1   
     4     3     6 1   
     5     3    25 1   
     6     4     5 1   
     7     4     8 1   
     8     4    26 1   
     9     5     6 1   
    10     6     7 2   
    11     8    10 1   
    12     8    27 1   
    13     8    28 1   
    14     9    20 ar  
    15     9    23 ar  
    16     9    29 1   
    17    10    11 ar  
    18    10    15 ar  
    19    11    12 ar  
    20    11    30 1   
    21    12    13 ar  
    22    12    31 1   
    23    13    14 ar  
    24    13    16 1   
    25    14    15 ar  
    26    14    32 1   
    27    15    33 1   
    28    16    17 1   
    29    17    18 1   
    30    17    34 1   
    31    17    35 1   
    32    18    24 1   
    33    18    36 1   
    34    18    37 1   
    35    19    38 1   
    36    19    39 1   
    37    19    40 1   
    38    19    45 1   
    39    20    21 ar  
    40    20    45 1   
    41    21    22 ar  
    42    21    43 1   
    43    22    24 ar  
    44    23    24 ar  
    45    23    44 1   
    46    41    45 1   
    47    42    45 1   
@<TRIPOS>SUBSTRUCTURE
     1 8N6         1 TEMP              0 ****  ****    0 ROOT
