@<TRIPOS>MOLECULE
8N7
   64    68     1     0     0
SMALL
bcc


@<TRIPOS>ATOM
      1 C10          4.0820     0.3880     1.2190 c3         1 8N7      -0.130700
      2 C13          4.7760     3.6270    -0.7950 c6         1 8N7      -0.071400
      3 C15          3.4640     2.0670    -2.2580 c6         1 8N7      -0.071400
      4 C17         -1.2620    -1.8810     0.2760 ca         1 8N7       0.084600
      5 C20         -1.0730     1.7250     0.5860 c6         1 8N7       0.161100
      6 C21          0.0040     2.4770     1.3450 c6         1 8N7      -0.132900
      7 C22         -0.0500     3.9550     0.9870 c6         1 8N7       0.131900
      8 C24         -0.9650     3.5290    -1.1210 c6         1 8N7       0.131900
      9 C26         -3.1320    -0.3410     0.3030 ca         1 8N7      -0.129000
     10 C28         -3.4850    -2.6610    -0.2290 ca         1 8N7      -0.110000
     11 N01          0.1060    -2.0100     0.4350 ns         1 8N7      -0.449100
     12 O03          0.5410    -4.2210     0.0210 o          1 8N7      -0.582100
     13 C04          2.3560    -2.7370     0.4640 ca         1 8N7       0.353800
     14 N05          2.6130    -1.4720     0.7730 nb         1 8N7      -0.690000
     15 C06          3.8650    -1.0620     0.9130 ca         1 8N7       0.431600
     16 C07          4.9290    -1.9500     0.7450 ca         1 8N7      -0.222300
     17 C08          4.6630    -3.2730     0.4350 ca         1 8N7      -0.098000
     18 C09          3.3460    -3.6880     0.2890 ca         1 8N7      -0.188300
     19 C11          4.3450     1.2480    -0.0270 c6         1 8N7      -0.054700
     20 C12          4.5390     2.7050     0.3950 c6         1 8N7      -0.071900
     21 C14          3.6460     3.5130    -1.8120 c6         1 8N7      -0.080400
     22 C16          3.2310     1.1410    -1.0670 c6         1 8N7      -0.071900
     23 C18         -1.7850    -0.5840     0.4760 ca         1 8N7       0.087100
     24 O19         -0.8830     0.3390     0.8670 os         1 8N7      -0.344900
     25 O23          0.0670     4.1660    -0.4020 os         1 8N7      -0.400600
     26 C25         -0.9650     2.0210    -0.9030 c6         1 8N7      -0.132900
     27 C27         -3.9940    -1.3820    -0.0490 ca         1 8N7      -0.152500
     28 C29         -2.1310    -2.9110    -0.0670 ca         1 8N7      -0.145000
     29 C30         -5.4080    -1.0910    -0.2130 cc         1 8N7       0.470000
     30 N31         -6.3910    -1.9770    -0.4060 na         1 8N7      -0.164400
     31 N32         -7.5430    -1.3350    -0.5040 nc         1 8N7      -0.205800
     32 N33         -7.2750    -0.0970    -0.3750 nd         1 8N7      -0.042000
     33 N34         -5.9720     0.0980    -0.1940 nd         1 8N7      -0.398000
     34 H102         3.1970     0.7700     1.7340 hc         1 8N7       0.058700
     35 H101         4.9280     0.4960     1.9030 hc         1 8N7       0.058700
     36 H132         4.8790     4.6590    -0.4500 hc         1 8N7       0.037950
     37 H131         5.7250     3.3640    -1.2740 hc         1 8N7       0.037950
     38 H152         2.6260     1.9850    -2.9550 hc         1 8N7       0.037950
     39 H151         4.3550     1.7390    -2.8040 hc         1 8N7       0.037950
     40 H201        -2.0520     2.0500     0.9590 h1         1 8N7       0.049700
     41 H212        -0.1270     2.3590     2.4230 hc         1 8N7       0.065450
     42 H211         0.9870     2.0710     1.0850 hc         1 8N7       0.065450
     43 H221        -0.9870     4.3910     1.3630 h1         1 8N7       0.049450
     44 H222         0.7740     4.4890     1.4640 h1         1 8N7       0.049450
     45 H242        -1.9440     3.9420    -0.8330 h1         1 8N7       0.049450
     46 H241        -0.8120     3.7560    -2.1760 h1         1 8N7       0.049450
     47 H261        -3.5340     0.6520     0.4540 ha         1 8N7       0.163000
     48 H281        -4.1250    -3.4890    -0.5040 ha         1 8N7       0.127000
     49 H011         0.6180    -1.1600     0.6550 hn         1 8N7       0.372500
     50 H071         5.9470    -1.6040     0.8630 ha         1 8N7       0.146000
     51 H081         5.4740    -3.9770     0.3080 ha         1 8N7       0.144000
     52 H091         3.1010    -4.7120     0.0440 ha         1 8N7       0.167000
     53 H111         5.2790     0.9010    -0.4900 hc         1 8N7       0.045700
     54 H121         5.3700     2.7780     1.1030 hc         1 8N7       0.039950
     55 H122         3.6430     3.0380     0.9330 hc         1 8N7       0.039950
     56 H141         2.7110     3.8670    -1.3620 hc         1 8N7       0.046700
     57 H142         3.8420     4.1560    -2.6740 hc         1 8N7       0.046700
     58 H162         2.2770     1.4010    -0.5960 hc         1 8N7       0.039950
     59 H161         3.1290     0.1110    -1.4180 hc         1 8N7       0.039950
     60 H252        -0.0370     1.5900    -1.2930 hc         1 8N7       0.065450
     61 H251        -1.7940     1.5830    -1.4640 hc         1 8N7       0.065450
     62 H291        -1.7580    -3.9100    -0.2230 ha         1 8N7       0.171000
     63 H1          -6.3660    -2.9860    -0.4650 hn         1 8N7       0.336700
     64 C02          0.9050    -3.0900     0.2850 c          1 8N7       0.582600
@<TRIPOS>BOND
     1     1    15 1   
     2     1    19 1   
     3     1    34 1   
     4     1    35 1   
     5     2    20 1   
     6     2    21 1   
     7     2    36 1   
     8     2    37 1   
     9     3    21 1   
    10     3    22 1   
    11     3    38 1   
    12     3    39 1   
    13     4    11 1   
    14     4    23 ar  
    15     4    28 ar  
    16     5     6 1   
    17     5    24 1   
    18     5    26 1   
    19     5    40 1   
    20     6     7 1   
    21     6    41 1   
    22     6    42 1   
    23     7    25 1   
    24     7    43 1   
    25     7    44 1   
    26     8    25 1   
    27     8    26 1   
    28     8    45 1   
    29     8    46 1   
    30     9    23 ar  
    31     9    27 ar  
    32     9    47 1   
    33    10    27 ar  
    34    10    28 ar  
    35    10    48 1   
    36    11    49 1   
    37    11    64 1   
    38    12    64 2   
    39    13    14 ar  
    40    13    18 ar  
    41    13    64 1   
    42    14    15 ar  
    43    15    16 ar  
    44    16    17 ar  
    45    16    50 1   
    46    17    18 ar  
    47    17    51 1   
    48    18    52 1   
    49    19    20 1   
    50    19    22 1   
    51    19    53 1   
    52    20    54 1   
    53    20    55 1   
    54    21    56 1   
    55    21    57 1   
    56    22    58 1   
    57    22    59 1   
    58    23    24 1   
    59    26    60 1   
    60    26    61 1   
    61    27    29 1   
    62    28    62 1   
    63    29    30 1   
    64    29    33 2   
    65    30    31 1   
    66    30    63 1   
    67    31    32 2   
    68    32    33 1   
@<TRIPOS>SUBSTRUCTURE
     1 8N7         1 TEMP              0 ****  ****    0 ROOT
