@<TRIPOS>MOLECULE
8N7
   64    68     1     0     0
SMALL
No Charge or Current Charge


@<TRIPOS>ATOM
      1 C10          4.1980     0.3750     1.2130 c3         1 8N7      -0.130700
      2 C13          5.0460     3.6940    -0.7480 c6         1 8N7      -0.071400
      3 C15          3.5380     2.2580    -2.2180 c6         1 8N7      -0.071400
      4 C17         -1.3890    -1.9140     0.3530 ca         1 8N7      -0.008000
      5 C20         -1.1740     1.7220     0.6260 c6         1 8N7       0.184300
      6 C21         -0.1200     2.5770     1.3690 c6         1 8N7      -0.132900
      7 C22         -0.1050     4.0240     0.8280 c6         1 8N7       0.155100
      8 C24         -0.9300     3.3280    -1.3360 c6         1 8N7       0.155100
      9 C26         -3.2930    -0.3850     0.4680 ca         1 8N7      -0.111000
     10 C28         -3.6330    -2.6910    -0.2180 ca         1 8N7      -0.092000
     11 N01          0.0150    -2.0750     0.4840 ns         1 8N7      -0.123000
     12 O03          0.5110    -4.2820     0.0140 o          1 8N7      -0.582100
     13 C04          2.3520    -2.7530     0.4480 ca         1 8N7       0.288500
     14 N05          2.6520    -1.4600     0.7740 nb         1 8N7      -0.690000
     15 C06          3.9470    -1.0860     0.8650 ca         1 8N7       0.366300
     16 C07          5.0070    -1.9830     0.6500 ca         1 8N7      -0.139000
     17 C08          4.7190    -3.3200     0.3290 ca         1 8N7      -0.080000
     18 C09          3.3710    -3.7060     0.2260 ca         1 8N7      -0.105000
     19 C11          4.4640     1.3000    -0.0150 c6         1 8N7      -0.054700
     20 C12          4.7820     2.7500     0.4500 c6         1 8N7      -0.071900
     21 C14          3.8530     3.6920    -1.7330 c6         1 8N7      -0.080400
     22 C16          3.2780     1.3060    -1.0250 c6         1 8N7      -0.071900
     23 C18         -1.9120    -0.6330     0.6160 ca         1 8N7       0.087100
     24 O19         -1.0340     0.3490     1.0430 os         1 8N7      -0.368100
     25 O23          0.1040     4.0110    -0.5990 os         1 8N7      -0.447000
     26 C25         -0.9850     1.8450    -0.9090 c6         1 8N7      -0.132900
     27 C27         -4.1690    -1.4110     0.0470 ca         1 8N7      -0.152500
     28 C29         -2.2580    -2.9410    -0.0680 ca         1 8N7      -0.127000
     29 C30         -5.6080    -1.1420    -0.1050 cc         1 8N7       0.470000
     30 N31         -6.5610    -2.0380    -0.4970 na         1 8N7      -0.214700
     31 N32         -7.7830    -1.4500    -0.5300 nc         1 8N7      -0.205800
     32 N33         -7.5610    -0.2170    -0.1620 nd         1 8N7      -0.042000
     33 N34         -6.2290     0.0010     0.1070 nd         1 8N7      -0.398000
     34 H102         3.3470     0.7650     1.7850 hc         1 8N7       0.058700
     35 H101         5.0520     0.4260     1.8970 hc         1 8N7       0.058700
     36 H132         5.2280     4.7150    -0.3850 hc         1 8N7       0.037950
     37 H131         5.9610     3.3810    -1.2720 hc         1 8N7       0.037950
     38 H152         2.6600     2.2730    -2.8780 hc         1 8N7       0.037950
     39 H151         4.3750     1.8770    -2.8190 hc         1 8N7       0.037950
     40 H201        -2.1690     2.0940     0.9060 h1         1 8N7       0.049700
     41 H212        -0.3370     2.5860     2.4450 hc         1 8N7       0.065450
     42 H211         0.8770     2.1320     1.2530 hc         1 8N7       0.065450
     43 H221        -1.0570     4.5280     1.0530 h1         1 8N7       0.049450
     44 H222         0.7050     4.5950     1.3040 h1         1 8N7       0.049450
     45 H242        -1.8970     3.8180    -1.1480 h1         1 8N7       0.049450
     46 H241        -0.7120     3.4020    -2.4110 h1         1 8N7       0.049450
     47 H261        -3.6950     0.5990     0.6930 ha         1 8N7       0.145000
     48 H281        -4.2750    -3.5050    -0.5450 ha         1 8N7       0.109000
     49 H011         0.4950    -1.2160     0.7310 hn         1 8N7       0.206000
     50 H071         6.0360    -1.6440     0.7320 ha         1 8N7       0.128000
     51 H081         5.5190    -4.0370     0.1570 ha         1 8N7       0.126000
     52 H091         3.1160    -4.7300    -0.0340 ha         1 8N7       0.149000
     53 H111         5.3520     0.8970    -0.5240 hc         1 8N7       0.045700
     54 H121         5.6590     2.7470     1.1130 hc         1 8N7       0.039950
     55 H122         3.9450     3.1420     1.0450 hc         1 8N7       0.039950
     56 H141         2.9680     4.1210    -1.2440 hc         1 8N7       0.046700
     57 H142         4.0780     4.3370    -2.5940 hc         1 8N7       0.046700
     58 H162         2.3550     1.6080    -0.5130 hc         1 8N7       0.039950
     59 H161         3.1010     0.2930    -1.4120 hc         1 8N7       0.039950
     60 H252        -0.0580     1.3410    -1.2140 hc         1 8N7       0.065450
     61 H251        -1.8070     1.3430    -1.4350 hc         1 8N7       0.065450
     62 H291        -1.8860    -3.9370    -0.2900 ha         1 8N7       0.153000
     63 H1          -6.4180    -3.0100    -0.7380 hn         1 8N7       0.387000
     64 C02          0.8810    -3.1420     0.2940 c          1 8N7       0.515600
@<TRIPOS>BOND
     1     1    15 1   
     2     1    19 1   
     3     1    34 1   
     4     1    35 1   
     5     2    20 1   
     6     2    21 1   
     7     2    36 1   
     8     2    37 1   
     9     3    21 1   
    10     3    22 1   
    11     3    38 1   
    12     3    39 1   
    13     4    11 1   
    14     4    23 ar  
    15     4    28 ar  
    16     5     6 1   
    17     5    24 1   
    18     5    26 1   
    19     5    40 1   
    20     6     7 1   
    21     6    41 1   
    22     6    42 1   
    23     7    25 1   
    24     7    43 1   
    25     7    44 1   
    26     8    25 1   
    27     8    26 1   
    28     8    45 1   
    29     8    46 1   
    30     9    23 ar  
    31     9    27 ar  
    32     9    47 1   
    33    10    27 ar  
    34    10    28 ar  
    35    10    48 1   
    36    11    49 1   
    37    11    64 1   
    38    12    64 2   
    39    13    14 ar  
    40    13    18 ar  
    41    13    64 1   
    42    14    15 ar  
    43    15    16 ar  
    44    16    17 ar  
    45    16    50 1   
    46    17    18 ar  
    47    17    51 1   
    48    18    52 1   
    49    19    20 1   
    50    19    22 1   
    51    19    53 1   
    52    20    54 1   
    53    20    55 1   
    54    21    56 1   
    55    21    57 1   
    56    22    58 1   
    57    22    59 1   
    58    23    24 1   
    59    26    60 1   
    60    26    61 1   
    61    27    29 1   
    62    28    62 1   
    63    29    30 1   
    64    29    33 2   
    65    30    31 1   
    66    30    63 1   
    67    31    32 2   
    68    32    33 1   
@<TRIPOS>SUBSTRUCTURE
     1 8N7         1 TEMP              0 ****  ****    0 ROOT
