@<TRIPOS>MOLECULE
8N8
   11    11     1     0     0
SMALL
No Charge or Current Charge


@<TRIPOS>ATOM
      1 C4           2.8510     0.0630     0.0570 c          1 8N8       0.739600
      2 Br1         -2.6460     0.3600    -0.0270 br         1 8N8      -0.118100
      3 C1          -0.8400     0.9040    -0.0090 cc         1 8N8      -0.028900
      4 C2           0.2660     0.0060     0.0210 cc         1 8N8      -0.056900
      5 Br           0.0070    -1.8750     0.0460 br         1 8N8      -0.070100
      6 C3           1.4870     0.6630     0.0280 cd         1 8N8      -0.202600
      7 O1           3.8060     0.8260     0.0600 o          1 8N8      -0.689000
      8 O            2.9880    -1.1500     0.0780 o          1 8N8      -0.689000
      9 S            1.2760     2.4200    -0.0020 ss         1 8N8       0.275000
     10 C           -0.4780     2.2230    -0.0240 cd         1 8N8      -0.297000
     11 H2          -1.1220     3.0930    -0.0470 h4         1 8N8       0.136000
@<TRIPOS>BOND
     1     1     6 1   
     2     1     7 1   
     3     1     8 1   
     4     2     3 1   
     5     3     4 1   
     6     3    10 2   
     7     4     5 1   
     8     4     6 2   
     9     6     9 1   
    10     9    10 1   
    11    10    11 1   
@<TRIPOS>SUBSTRUCTURE
     1 8N8         1 TEMP              0 ****  ****    0 ROOT
