@<TRIPOS>MOLECULE
8N8
   11    11     1     0     0
SMALL
abcg2


@<TRIPOS>ATOM
      1 C4           2.8800     0.0760     0.0530 c          1 8N8       0.739600
      2 BR1         -2.6530     0.4090    -0.0320 br         1 8N8      -0.118100
      3 C1          -0.8480     0.9100    -0.0090 cc         1 8N8      -0.028900
      4 C2           0.2360    -0.0140     0.0220 cc         1 8N8      -0.056900
      5 BR          -0.0160    -1.8610     0.0420 br         1 8N8      -0.070100
      6 C3           1.4540     0.5960     0.0310 cd         1 8N8      -0.202600
      7 O1           3.7310     0.9770     0.0490 o          1 8N8      -0.689000
      8 O            3.0150    -1.1520     0.0890 o          1 8N8      -0.689000
      9 S            1.2760     2.3010     0.0010 ss         1 8N8       0.275000
     10 C           -0.4300     2.2040    -0.0220 cd         1 8N8      -0.297000
     11 H2          -1.0500     3.0870    -0.0450 h4         1 8N8       0.136000
@<TRIPOS>BOND
     1     1     6 1   
     2     1     7 1   
     3     1     8 1   
     4     2     3 1   
     5     3     4 1   
     6     3    10 2   
     7     4     5 1   
     8     4     6 2   
     9     6     9 1   
    10     9    10 1   
    11    10    11 1   
@<TRIPOS>SUBSTRUCTURE
     1 8N8         1 TEMP              0 ****  ****    0 ROOT
