@<TRIPOS>MOLECULE
8NA
   70    74     1     0     0
SMALL
No Charge or Current Charge


@<TRIPOS>ATOM
      1 PA          -1.0700     3.3470    -1.0300 p5         1 8NA       1.454800
      2 O1A         -2.3900     3.4410    -0.3350 o          1 8NA      -0.843000
      3 O2A         -0.6040     4.6800    -1.5240 o          1 8NA      -0.843000
      4 O5B         -1.1950     2.3700    -2.3130 os         1 8NA      -0.567400
      5 C5B         -2.0430     1.2060    -2.3250 c3         1 8NA       0.216600
      6 C4B         -1.4220     0.0400    -1.4970 c5         1 8NA       0.155300
      7 O4B         -1.7730     0.1800    -0.0910 os         1 8NA      -0.420000
      8 C3B         -1.9760    -1.3680    -1.9040 c5         1 8NA       0.099300
      9 O3B         -1.1370    -2.4560    -1.4880 oh         1 8NA      -0.715000
     10 C2B         -3.3060    -1.3710    -1.1010 c5         1 8NA       0.070300
     11 O2B         -3.8680    -2.6960    -1.0020 oh         1 8NA      -0.703000
     12 C1B         -2.7850    -0.7900     0.2570 c5         1 8NA       0.323300
     13 N9A         -3.7580    -0.1790     1.1600 na         1 8NA      -0.294300
     14 C8A         -4.8550     0.6050     0.7800 cc         1 8NA       0.458700
     15 N7A         -5.6200     0.9290     1.8450 nd         1 8NA      -0.567100
     16 C5A         -4.9460     0.3330     2.9160 ca         1 8NA      -0.084600
     17 C6A         -5.2650     0.3320     4.2920 ca         1 8NA       0.433900
     18 N6A         -6.3660     0.9560     4.7940 nv         1 8NA      -1.077900
     19 N1A         -4.4900    -0.3050     5.1840 nb         1 8NA      -0.322000
     20 C2A         -3.3980    -0.9340     4.6830 ca         1 8NA       0.148900
     21 N3A         -3.0170    -0.9860     3.3840 nb         1 8NA      -0.210000
     22 C4A         -3.8170    -0.3370     2.5140 ca         1 8NA       0.106500
     23 O3           0.0560     2.5450    -0.2570 os         1 8NA      -0.687800
     24 PN           0.4180     3.2080     1.1350 p5         1 8NA       1.445800
     25 O1N          1.0360     4.5640     1.0060 o          1 8NA      -0.836000
     26 O2N         -0.6760     3.1820     2.1560 o          1 8NA      -0.836000
     27 O5D          1.5800     2.1770     1.5730 os         1 8NA      -0.558400
     28 C5D          1.2600     0.8370     1.9880 c3         1 8NA       0.234600
     29 C4D          1.6140    -0.1540     0.8510 c5         1 8NA       0.153300
     30 O4D          3.0080    -0.0280     0.4470 os         1 8NA      -0.387000
     31 C3D          1.4740    -1.6630     1.2190 c5         1 8NA       0.096300
     32 O3D          0.1260    -2.1400     1.3010 oh         1 8NA      -0.688000
     33 C2D          2.2610    -2.2750     0.0220 c5         1 8NA       0.076300
     34 O2D          1.5650    -2.1500    -1.2370 oh         1 8NA      -0.739000
     35 C1D          3.5270    -1.3500     0.1260 c5         1 8NA       0.265300
     36 N1N          4.4190    -1.3040    -1.0460 na         1 8NA       0.064300
     37 C2N          5.6350    -2.0090    -1.0760 ca         1 8NA      -0.016000
     38 C3N          6.5410    -1.9510    -2.1640 ca         1 8NA      -0.186600
     39 C7N          7.8300    -2.7370    -2.0890 c          1 8NA       0.625700
     40 O7N          8.1280    -3.4020    -1.1120 o          1 8NA      -0.578100
     41 N7N          8.6780    -2.6980    -3.1400 nt         1 8NA      -0.590000
     42 C4N          6.2010    -1.1600    -3.2830 ca         1 8NA       0.006000
     43 C5N          4.9820    -0.4650    -3.2890 ca         1 8NA      -0.138000
     44 C6N          4.1110    -0.5500    -2.1860 ca         1 8NA       0.067700
     45 H2          -3.0480     1.4420    -1.9520 h1         1 8NA       0.016200
     46 H3          -2.1570     0.8690    -3.3630 h1         1 8NA       0.016200
     47 H4          -0.3340     0.0810    -1.6250 h1         1 8NA       0.092700
     48 H5          -2.1610    -1.4270    -2.9860 h1         1 8NA       0.053700
     49 H6          -1.7770    -3.1660    -1.2300 ho         1 8NA       0.505000
     50 H7          -4.0320    -0.6830    -1.5590 h1         1 8NA       0.070700
     51 H8          -4.4480    -2.8380    -1.7880 ho         1 8NA       0.502000
     52 H9          -2.3130    -1.6000     0.8270 h2         1 8NA       0.095700
     53 H10         -5.0390     0.8930    -0.2500 h5         1 8NA       0.154800
     54 H11         -7.0720     1.2470     4.1220 hn         1 8NA       0.498000
     55 H12         -6.6980     0.6800     5.7150 hn         1 8NA       0.498000
     56 H13         -2.7600    -1.4510     5.3980 h5         1 8NA       0.026100
     57 H15          1.8300     0.5720     2.8870 h1         1 8NA       0.038200
     58 H16          0.1920     0.7320     2.2270 h1         1 8NA       0.038200
     59 H17          0.9900     0.0920    -0.0130 h1         1 8NA       0.088700
     60 H18          1.9950    -1.8590     2.1690 h1         1 8NA       0.074700
     61 H19          0.1470    -3.0220     1.7420 ho         1 8NA       0.515000
     62 H20          2.5250    -3.3260     0.2100 h1         1 8NA       0.062700
     63 H21          0.5820    -2.2720    -1.0670 ho         1 8NA       0.550000
     64 H22          4.1470    -1.6870     0.9660 h2         1 8NA       0.108700
     65 H23          5.8630    -2.6230    -0.2020 h4         1 8NA       0.191000
     66 H24          8.4610    -2.1560    -3.9610 hn         1 8NA       0.326000
     67 H25          9.5370    -3.2280    -3.0920 hn         1 8NA       0.326000
     68 H26          6.8570    -1.0780    -4.1480 ha         1 8NA       0.143000
     69 H27          4.7060     0.1380    -4.1520 ha         1 8NA       0.173000
     70 H28          3.1530    -0.0270    -2.1890 h4         1 8NA       0.221000
@<TRIPOS>BOND
     1     1     2 1   
     2     1     3 1   
     3     1     4 1   
     4     1    23 1   
     5     4     5 1   
     6     5     6 1   
     7     5    45 1   
     8     5    46 1   
     9     6     7 1   
    10     6     8 1   
    11     6    47 1   
    12     7    12 1   
    13     8     9 1   
    14     8    10 1   
    15     8    48 1   
    16     9    49 1   
    17    10    11 1   
    18    10    12 1   
    19    10    50 1   
    20    11    51 1   
    21    12    13 1   
    22    12    52 1   
    23    13    14 1   
    24    13    22 1   
    25    14    15 2   
    26    14    53 1   
    27    15    16 1   
    28    16    17 ar  
    29    16    22 ar  
    30    17    18 1   
    31    17    19 ar  
    32    18    54 1   
    33    18    55 1   
    34    19    20 ar  
    35    20    21 ar  
    36    20    56 1   
    37    21    22 ar  
    38    23    24 1   
    39    24    25 1   
    40    24    26 1   
    41    24    27 1   
    42    27    28 1   
    43    28    29 1   
    44    28    57 1   
    45    28    58 1   
    46    29    30 1   
    47    29    31 1   
    48    29    59 1   
    49    30    35 1   
    50    31    32 1   
    51    31    33 1   
    52    31    60 1   
    53    32    61 1   
    54    33    34 1   
    55    33    35 1   
    56    33    62 1   
    57    34    63 1   
    58    35    36 1   
    59    35    64 1   
    60    36    37 1   
    61    36    44 2   
    62    37    38 ar  
    63    37    65 1   
    64    38    39 1   
    65    38    42 ar  
    66    39    40 2   
    67    39    41 1   
    68    41    66 1   
    69    41    67 1   
    70    42    43 ar  
    71    42    68 1   
    72    43    44 ar  
    73    43    69 1   
    74    44    70 1   
@<TRIPOS>SUBSTRUCTURE
     1 8NA         1 TEMP              0 ****  ****    0 ROOT
