@<TRIPOS>MOLECULE
8NA
   70    74     1     0     0
SMALL
abcg2


@<TRIPOS>ATOM
      1 PA          -1.5750     2.3440     0.1910 p5         1 8NA       1.454800
      2 O1A         -2.4990     1.9610     1.3090 o          1 8NA      -0.843000
      3 O2A         -1.5100     3.7620    -0.2760 o          1 8NA      -0.843000
      4 O5B         -1.8390     1.3450    -1.0910 os         1 8NA      -0.567400
      5 C5B         -2.9980     1.5830    -1.8550 c3         1 8NA       0.216600
      6 C4B         -3.5070     0.2680    -2.4130 c5         1 8NA       0.155300
      7 O4B         -3.8090    -0.6520    -1.3570 os         1 8NA      -0.420000
      8 C3B         -4.8040     0.4440    -3.1890 c5         1 8NA       0.099300
      9 O3B         -4.9120    -0.5900    -4.1320 oh         1 8NA      -0.715000
     10 C2B         -5.8330     0.2760    -2.0680 c5         1 8NA       0.070300
     11 O2B         -7.1070    -0.1120    -2.4850 oh         1 8NA      -0.703000
     12 C1B         -5.1880    -0.8390    -1.2430 c5         1 8NA       0.323300
     13 N9A         -5.5580    -0.8200     0.1520 na         1 8NA      -0.294300
     14 C8A         -5.0730     0.0020     1.1350 cc         1 8NA       0.458700
     15 N7A         -5.6450    -0.1930     2.2890 nd         1 8NA      -0.567100
     16 C5A         -6.5560    -1.1900     2.0590 ca         1 8NA      -0.084600
     17 C6A         -7.4800    -1.8530     2.8870 ca         1 8NA       0.433900
     18 N6A         -7.6200    -1.5680     4.1840 nv         1 8NA      -1.077900
     19 N1A         -8.2350    -2.8140     2.3430 nb         1 8NA      -0.322000
     20 C2A         -8.0810    -3.1050     1.0540 ca         1 8NA       0.148900
     21 N3A         -7.2580    -2.5540     0.1790 nb         1 8NA      -0.210000
     22 C4A         -6.5160    -1.5980     0.7340 ca         1 8NA       0.106500
     23 O3          -0.0790     1.7520     0.4960 os         1 8NA      -0.687800
     24 PN           1.1690     2.6740     1.0380 p5         1 8NA       1.445800
     25 O1N          1.8640     3.3370    -0.1070 o          1 8NA      -0.836000
     26 O2N          0.7550     3.4630     2.2400 o          1 8NA      -0.836000
     27 O5D          2.0420     1.3590     1.5160 os         1 8NA      -0.558400
     28 C5D          3.2650     1.6060     2.1710 c3         1 8NA       0.234600
     29 C4D          4.1900     0.4380     1.9460 c5         1 8NA       0.153300
     30 O4D          4.5780     0.3940     0.5680 os         1 8NA      -0.387000
     31 C3D          5.5120     0.5510     2.6980 c5         1 8NA       0.096300
     32 O3D          5.3730     0.0750     4.0020 oh         1 8NA      -0.688000
     33 C2D          6.4400    -0.3140     1.8330 c5         1 8NA       0.076300
     34 O2D          6.2380    -1.6730     2.0810 oh         1 8NA      -0.739000
     35 C1D          5.9040     0.0270     0.4380 c5         1 8NA       0.265300
     36 N1N          6.0100    -1.1470    -0.4690 na         1 8NA       0.064300
     37 C2N          7.1370    -1.2930    -1.1710 ca         1 8NA      -0.016000
     38 C3N          7.3390    -2.4010    -1.9660 ca         1 8NA      -0.186600
     39 C7N          8.6300    -2.4610    -2.7330 c          1 8NA       0.625700
     40 O7N          9.2780    -1.4410    -2.9030 o          1 8NA      -0.578100
     41 N7N          8.9840    -3.6620    -3.1910 nt         1 8NA      -0.590000
     42 C4N          6.3260    -3.3510    -2.0390 ca         1 8NA       0.006000
     43 C5N          5.1640    -3.1700    -1.3090 ca         1 8NA      -0.138000
     44 C6N          5.0290    -2.0570    -0.5140 ca         1 8NA       0.067700
     45 H2          -3.7880     2.0690    -1.2670 h1         1 8NA       0.016200
     46 H3          -2.7750     2.2510    -2.6950 h1         1 8NA       0.016200
     47 H4          -2.7320    -0.1820    -3.0400 h1         1 8NA       0.092700
     48 H5          -4.8680     1.4330    -3.6610 h1         1 8NA       0.053700
     49 H6          -5.8400    -0.6660    -4.3840 ho         1 8NA       0.505000
     50 H7          -5.8650     1.1970    -1.4730 h1         1 8NA       0.070700
     51 H8          -7.6010     0.6730    -2.7440 ho         1 8NA       0.502000
     52 H9          -5.4990    -1.8170    -1.6290 h2         1 8NA       0.095700
     53 H10         -4.2700     0.7090     0.9620 h5         1 8NA       0.154800
     54 H11         -7.1170    -0.8060     4.6030 hn         1 8NA       0.498000
     55 H12         -8.3390    -2.0160     4.7250 hn         1 8NA       0.498000
     56 H13         -8.7190    -3.8970     0.6760 h5         1 8NA       0.026100
     57 H15          3.7550     2.5180     1.8080 h1         1 8NA       0.038200
     58 H16          3.1150     1.7220     3.2500 h1         1 8NA       0.038200
     59 H17          3.6850    -0.4960     2.2210 h1         1 8NA       0.088700
     60 H18          5.8640     1.5910     2.6730 h1         1 8NA       0.074700
     61 H19          6.0800     0.4370     4.5470 ho         1 8NA       0.515000
     62 H20          7.4940    -0.0310     1.9260 h1         1 8NA       0.062700
     63 H21          6.0780    -1.7820     3.0280 ho         1 8NA       0.550000
     64 H22          6.4830     0.8220    -0.0370 h2         1 8NA       0.108700
     65 H23          7.8710    -0.5050    -1.0860 h4         1 8NA       0.191000
     66 H24          8.5030    -4.5100    -2.9460 hn         1 8NA       0.326000
     67 H25          9.8480    -3.7630    -3.7000 hn         1 8NA       0.326000
     68 H26          6.4150    -4.2240    -2.6720 ha         1 8NA       0.143000
     69 H27          4.3570    -3.8850    -1.3530 ha         1 8NA       0.173000
     70 H28          4.1400    -1.8690     0.0670 h4         1 8NA       0.221000
@<TRIPOS>BOND
     1     1     2 1   
     2     1     3 1   
     3     1     4 1   
     4     1    23 1   
     5     4     5 1   
     6     5     6 1   
     7     5    45 1   
     8     5    46 1   
     9     6     7 1   
    10     6     8 1   
    11     6    47 1   
    12     7    12 1   
    13     8     9 1   
    14     8    10 1   
    15     8    48 1   
    16     9    49 1   
    17    10    11 1   
    18    10    12 1   
    19    10    50 1   
    20    11    51 1   
    21    12    13 1   
    22    12    52 1   
    23    13    14 1   
    24    13    22 1   
    25    14    15 2   
    26    14    53 1   
    27    15    16 1   
    28    16    17 ar  
    29    16    22 ar  
    30    17    18 1   
    31    17    19 ar  
    32    18    54 1   
    33    18    55 1   
    34    19    20 ar  
    35    20    21 ar  
    36    20    56 1   
    37    21    22 ar  
    38    23    24 1   
    39    24    25 1   
    40    24    26 1   
    41    24    27 1   
    42    27    28 1   
    43    28    29 1   
    44    28    57 1   
    45    28    58 1   
    46    29    30 1   
    47    29    31 1   
    48    29    59 1   
    49    30    35 1   
    50    31    32 1   
    51    31    33 1   
    52    31    60 1   
    53    32    61 1   
    54    33    34 1   
    55    33    35 1   
    56    33    62 1   
    57    34    63 1   
    58    35    36 1   
    59    35    64 1   
    60    36    37 1   
    61    36    44 2   
    62    37    38 ar  
    63    37    65 1   
    64    38    39 1   
    65    38    42 ar  
    66    39    40 2   
    67    39    41 1   
    68    41    66 1   
    69    41    67 1   
    70    42    43 ar  
    71    42    68 1   
    72    43    44 ar  
    73    43    69 1   
    74    44    70 1   
@<TRIPOS>SUBSTRUCTURE
     1 8NA         1 TEMP              0 ****  ****    0 ROOT
