@<TRIPOS>MOLECULE
8NB
   23    23     1     0     0
SMALL
No Charge or Current Charge


@<TRIPOS>ATOM
      1 C4          -0.3310    -0.6510     0.0460 ca         1 8NB      -0.091000
      2 C5           1.0740    -0.6670     0.0870 ca         1 8NB       0.104000
      3 C6           1.8070     0.5380     0.0590 ca         1 8NB       0.122100
      4 C7           4.0110     1.6610     0.0770 c3         1 8NB       0.147900
      5 C8          -3.4550    -0.2890    -0.0570 c          1 8NB       0.607100
      6 C9          -4.8670     0.2880    -0.1210 c3         1 8NB      -0.181100
      7 C3          -1.0310     0.5740    -0.0230 ca         1 8NB      -0.047000
      8 C1           1.1080     1.7640    -0.0100 ca         1 8NB      -0.164000
      9 C2          -0.2970     1.7750    -0.0510 ca         1 8NB      -0.131000
     10 O1           3.1890     0.4810     0.1010 os         1 8NB      -0.322100
     11 Cl1          1.9050    -2.2220     0.1730 cl         1 8NB      -0.180000
     12 O2          -3.2620    -1.4980    -0.0030 o          1 8NB      -0.581100
     13 H1          -0.8520    -1.6020     0.0700 ha         1 8NB       0.166000
     14 H2           3.7940     2.3060     0.9380 h1         1 8NB       0.042033
     15 H3           5.0720     1.3860     0.1180 h1         1 8NB       0.042033
     16 H4           3.8450     2.2340    -0.8440 h1         1 8NB       0.042033
     17 H5          -4.9490     0.9320    -1.0040 hc         1 8NB       0.064033
     18 H6          -5.6410    -0.4880    -0.1120 hc         1 8NB       0.064033
     19 H7          -4.9980     1.0010     0.7010 hc         1 8NB       0.064033
     20 H8          -2.7930     1.6220    -0.1160 hn         1 8NB       0.148000
     21 H9           1.6350     2.7140    -0.0330 ha         1 8NB       0.120000
     22 H10         -0.8190     2.7280    -0.1040 ha         1 8NB       0.110000
     23 N1          -2.4500     0.6710    -0.0680 ns         1 8NB      -0.145000
@<TRIPOS>BOND
     1     1     2 ar  
     2     1     7 ar  
     3     1    13 1   
     4     2     3 ar  
     5     2    11 1   
     6     3     8 ar  
     7     3    10 1   
     8     4    10 1   
     9     4    14 1   
    10     4    15 1   
    11     4    16 1   
    12     5     6 1   
    13     5    12 2   
    14     5    23 1   
    15     6    17 1   
    16     6    18 1   
    17     6    19 1   
    18     7     9 ar  
    19     7    23 1   
    20     8     9 ar  
    21     8    21 1   
    22     9    22 1   
    23    20    23 1   
@<TRIPOS>SUBSTRUCTURE
     1 8NB         1 TEMP              0 ****  ****    0 ROOT
