@<TRIPOS>MOLECULE
8NB
   23    23     1     0     0
SMALL
abcg2


@<TRIPOS>ATOM
      1 C4          -0.3480    -0.6040     0.0930 ca         1 8NB      -0.091000
      2 C5           1.0340    -0.6110     0.1490 ca         1 8NB       0.104000
      3 C6           1.7940     0.5580     0.0850 ca         1 8NB       0.122100
      4 C7           3.9140     1.6050     0.0360 c3         1 8NB       0.147900
      5 C8          -3.3690    -0.2320    -0.0190 c          1 8NB       0.607100
      6 C9          -4.7810     0.2850    -0.1150 c3         1 8NB      -0.181100
      7 C3          -1.0250     0.6100    -0.0320 ca         1 8NB      -0.047000
      8 C1           1.1060     1.7620    -0.0360 ca         1 8NB      -0.164000
      9 C2          -0.2780     1.7830    -0.0930 ca         1 8NB      -0.131000
     10 O1           3.1270     0.4330     0.1440 os         1 8NB      -0.322100
     11 CL1          1.8580    -2.1240     0.3020 cl         1 8NB      -0.180000
     12 O2          -3.1230    -1.4150     0.1500 o          1 8NB      -0.581100
     13 H1          -0.8830    -1.5380     0.1450 ha         1 8NB       0.166000
     14 H2           3.7230     2.3020     0.8550 h1         1 8NB       0.042033
     15 H3           4.9510     1.2830     0.0850 h1         1 8NB       0.042033
     16 H4           3.7490     2.1190    -0.9140 h1         1 8NB       0.042033
     17 H5          -4.8500     1.2860    -0.5370 hc         1 8NB       0.064033
     18 H6          -5.3780    -0.3940    -0.7200 hc         1 8NB       0.064033
     19 H7          -5.2210     0.3100     0.8840 hc         1 8NB       0.064033
     20 H8          -2.7490     1.6720    -0.2480 hn         1 8NB       0.148000
     21 H9           1.6390     2.7010    -0.0900 ha         1 8NB       0.120000
     22 H10         -0.7800     2.7380    -0.1890 ha         1 8NB       0.110000
     23 N1          -2.4160     0.7300    -0.1110 ns         1 8NB      -0.145000
@<TRIPOS>BOND
     1     1     2 ar  
     2     1     7 ar  
     3     1    13 1   
     4     2     3 ar  
     5     2    11 1   
     6     3     8 ar  
     7     3    10 1   
     8     4    10 1   
     9     4    14 1   
    10     4    15 1   
    11     4    16 1   
    12     5     6 1   
    13     5    12 2   
    14     5    23 1   
    15     6    17 1   
    16     6    18 1   
    17     6    19 1   
    18     7     9 ar  
    19     7    23 1   
    20     8     9 ar  
    21     8    21 1   
    22     9    22 1   
    23    20    23 1   
@<TRIPOS>SUBSTRUCTURE
     1 8NB         1 TEMP              0 ****  ****    0 ROOT
