@<TRIPOS>MOLECULE
8NC
   62    65     1     0     0
SMALL
No Charge or Current Charge


@<TRIPOS>ATOM
      1 S1           2.9450     5.4580    -0.1160 s6         1 8NC       1.215100
      2 C2           0.8140     2.1500     0.1380 c5         1 8NC      -0.154700
      3 C3           2.1930     1.5750     0.6410 c5         1 8NC      -0.157700
      4 N4           2.3240     3.8610    -0.0270 n3         1 8NC      -0.755500
      5 C5          -0.3830     1.5740     0.9340 c          1 8NC       0.618100
      6 N6          -6.3310    -1.6440     0.6240 n          1 8NC      -0.202200
      7 C7           2.7490     0.5150    -0.3480 c          1 8NC       0.620100
      8 C8           0.9550     3.6490     0.4650 c5         1 8NC       0.218800
      9 C9           3.1360     2.8170     0.6380 c5         1 8NC       0.220800
     10 C10         -6.6450    -2.5230     1.6960 c          1 8NC       0.556200
     11 C11         -5.0110    -1.0540     0.5020 ca         1 8NC       0.031600
     12 N12         -1.2820     0.9970     0.0460 ns         1 8NC      -0.143000
     13 C13         -4.3990    -0.8900    -0.7600 ca         1 8NC      -0.124000
     14 N14          2.9760    -0.6680     0.3470 ns         1 8NC      -0.128000
     15 C15         -2.5290     0.3320     0.2410 ca         1 8NC      -0.062000
     16 C16         -3.1700    -0.2250    -0.8820 ca         1 8NC       0.132000
     17 C17          4.0160    -4.2320     0.5790 ca         1 8NC       0.168000
     18 C18          3.5460    -2.9510     0.9130 ca         1 8NC      -0.176000
     19 O19          4.3780     5.3300    -0.3950 o          1 8NC      -0.524500
     20 O20          2.0870     6.1880    -1.0540 o          1 8NC      -0.524500
     21 C21         -7.2600    -1.4440    -0.4100 cc         1 8NC      -0.025400
     22 C22          3.4620    -1.9410    -0.0630 ca         1 8NC      -0.034000
     23 O23         -0.5100     1.5980     2.1520 o          1 8NC      -0.578100
     24 O24          2.9400     0.6750    -1.5480 o          1 8NC      -0.578100
     25 C25         -7.9800    -3.1350     1.6430 cc         1 8NC      -0.318200
     26 C26          4.4130    -4.5310    -0.7400 ca         1 8NC       0.082100
     27 O27         -5.8650    -2.7910     2.6010 o          1 8NC      -0.541000
     28 C28         -4.3930    -0.4470     1.6180 ca         1 8NC      -0.078000
     29 C29         -3.1620     0.2230     1.4970 ca         1 8NC      -0.088000
     30 C30         -8.4970    -2.0570    -0.4400 cd         1 8NC      -0.297000
     31 C31         -8.8840    -2.9310     0.6260 cd         1 8NC      -0.084000
     32 C32          4.3320    -3.5200    -1.7240 ca         1 8NC      -0.151000
     33 C33          2.7360     6.1150     1.5310 c3         1 8NC      -0.384100
     34 F34         -2.6000    -0.1200    -2.1050 f          1 8NC      -0.178000
     35 C36          3.8600    -2.2370    -1.3860 ca         1 8NC      -0.106000
     36 O37          4.8710    -5.8060    -1.0280 os         1 8NC      -0.322100
     37 C38          5.2950    -6.1940    -2.3470 c3         1 8NC       0.146900
     38 H331         3.2770     5.4620     2.2230 h1         1 8NC       0.100700
     39 H332         3.1560     7.1260     1.5330 h1         1 8NC       0.100700
     40 H333         1.6640     6.1350     1.7520 h1         1 8NC       0.100700
     41 H2           0.6770     2.0160    -0.9430 hc         1 8NC       0.110700
     42 H3           2.1280     1.1650     1.6570 hc         1 8NC       0.075700
     43 H81C         0.2120     4.2580    -0.0700 h1         1 8NC       0.066200
     44 H82C         0.8680     3.8570     1.5420 h1         1 8NC       0.066200
     45 H91C         3.3900     3.1060     1.6680 h1         1 8NC       0.075200
     46 H92C         4.0820     2.6320     0.1090 h1         1 8NC       0.075200
     47 H12         -1.0040     1.0550    -0.9250 hn         1 8NC       0.170000
     48 H21         -6.9220    -0.7360    -1.1600 h4         1 8NC       0.204000
     49 H14          2.7530    -0.6180     1.3330 hn         1 8NC       0.156000
     50 H25         -8.2080    -3.7950     2.4720 ha         1 8NC       0.210000
     51 H13         -4.8480    -1.3140    -1.6550 ha         1 8NC       0.145000
     52 H28         -4.8730    -0.4750     2.5930 ha         1 8NC       0.139000
     53 H29         -2.7300     0.6640     2.3900 ha         1 8NC       0.150000
     54 H18          3.2460    -2.7490     1.9380 ha         1 8NC       0.130000
     55 H30         -9.1820    -1.8600    -1.2630 ha         1 8NC       0.202000
     56 H36          3.8150    -1.4880    -2.1710 ha         1 8NC       0.151000
     57 H31         -9.8580    -3.4190     0.6310 ha         1 8NC       0.187000
     58 H32          4.6290    -3.7080    -2.7520 ha         1 8NC       0.124000
     59 H381         4.4750    -6.0890    -3.0680 h1         1 8NC       0.044033
     60 H382         6.1400    -5.5790    -2.6810 h1         1 8NC       0.044033
     61 H383         5.6170    -7.2430    -2.3490 h1         1 8NC       0.044033
     62 F35          4.0830    -5.1790     1.5430 f          1 8NC      -0.165000
@<TRIPOS>BOND
     1     1     4 1   
     2     1    19 2   
     3     1    20 2   
     4     1    33 1   
     5     2     3 1   
     6     2     5 1   
     7     2     8 1   
     8     2    41 1   
     9     3     7 1   
    10     3     9 1   
    11     3    42 1   
    12     4     8 1   
    13     4     9 1   
    14     5    12 1   
    15     5    23 2   
    16     6    10 1   
    17     6    11 1   
    18     6    21 1   
    19     7    14 1   
    20     7    24 2   
    21     8    43 1   
    22     8    44 1   
    23     9    45 1   
    24     9    46 1   
    25    10    25 1   
    26    10    27 2   
    27    11    13 ar  
    28    11    28 ar  
    29    12    15 1   
    30    12    47 1   
    31    13    16 ar  
    32    13    51 1   
    33    14    22 1   
    34    14    49 1   
    35    15    16 ar  
    36    15    29 ar  
    37    16    34 1   
    38    17    18 ar  
    39    17    26 ar  
    40    17    62 1   
    41    18    22 ar  
    42    18    54 1   
    43    21    30 2   
    44    21    48 1   
    45    22    35 ar  
    46    25    31 2   
    47    25    50 1   
    48    26    32 ar  
    49    26    36 1   
    50    28    29 ar  
    51    28    52 1   
    52    29    53 1   
    53    30    31 1   
    54    30    55 1   
    55    31    57 1   
    56    32    35 ar  
    57    32    58 1   
    58    33    38 1   
    59    33    39 1   
    60    33    40 1   
    61    35    56 1   
    62    36    37 1   
    63    37    59 1   
    64    37    60 1   
    65    37    61 1   
@<TRIPOS>SUBSTRUCTURE
     1 8NC         1 TEMP              0 ****  ****    0 ROOT
