@<TRIPOS>MOLECULE
8NC
   62    65     1     0     0
SMALL
abcg2


@<TRIPOS>ATOM
      1 S1           2.1380     5.1940    -0.0130 s6         1 8NC       1.215100
      2 C2           0.6980     1.6630    -0.7590 c5         1 8NC      -0.154700
      3 C3           2.0670     1.4130    -0.1400 c5         1 8NC      -0.157700
      4 N4           1.8180     3.7020    -0.6160 n3         1 8NC      -0.755500
      5 C5          -0.3930     0.7870    -0.1800 c          1 8NC       0.618100
      6 N6          -6.5700    -1.2210     0.6010 n          1 8NC      -0.202200
      7 C7           2.7080     0.1280    -0.6250 c          1 8NC       0.620100
      8 C8           0.4680     3.1500    -0.4730 c5         1 8NC       0.218800
      9 C9           2.8510     2.6570    -0.5640 c5         1 8NC       0.220800
     10 C10         -7.1020    -2.3050    -0.1030 c          1 8NC       0.556200
     11 C11         -5.2890    -0.7280     0.2110 ca         1 8NC       0.031600
     12 N12         -1.5690     0.8730    -0.8540 ns         1 8NC      -0.143000
     13 C13         -5.2080     0.4830    -0.4570 ca         1 8NC      -0.124000
     14 N14          3.2840    -0.6020     0.3540 ns         1 8NC      -0.128000
     15 C15         -2.7840     0.2940    -0.4760 ca         1 8NC      -0.062000
     16 C16         -3.9620     0.9730    -0.7770 ca         1 8NC       0.132000
     17 C17          5.0760    -3.5740     1.4680 ca         1 8NC       0.168000
     18 C18          4.3840    -2.3900     1.4700 ca         1 8NC      -0.176000
     19 O19          3.4530     5.5780    -0.5000 o          1 8NC      -0.524500
     20 O20          0.9820     6.0230    -0.3160 o          1 8NC      -0.524500
     21 C21         -7.2210    -0.5950     1.6220 cc         1 8NC      -0.025400
     22 C22          3.9750    -1.8170     0.2620 ca         1 8NC      -0.034000
     23 O23         -0.2210     0.0960     0.8030 o          1 8NC      -0.578100
     24 O24          2.7020    -0.1760    -1.8050 o          1 8NC      -0.578100
     25 C25         -8.4010    -2.7250     0.3500 cc         1 8NC      -0.318200
     26 C26          5.3980    -4.2530     0.2920 ca         1 8NC       0.082100
     27 O27         -6.4730    -2.8140    -1.0230 o          1 8NC      -0.541000
     28 C28         -4.1400    -1.4370     0.5200 ca         1 8NC      -0.078000
     29 C29         -2.8970    -0.9340     0.1720 ca         1 8NC      -0.088000
     30 C30         -8.4460    -0.9980     2.0330 cd         1 8NC      -0.297000
     31 C31         -9.0430    -2.0980     1.3700 cd         1 8NC      -0.084000
     32 C32          4.9840    -3.6740    -0.8990 ca         1 8NC      -0.151000
     33 C33          2.2390     5.0110     1.7550 c3         1 8NC      -0.384100
     34 F34         -3.8710     2.1520    -1.4090 f          1 8NC      -0.178000
     35 C36          4.2840    -2.4710    -0.9240 ca         1 8NC      -0.106000
     36 O37          6.0790    -5.4030     0.4230 os         1 8NC      -0.322100
     37 C38          6.3860    -6.1260    -0.7530 c3         1 8NC       0.146900
     38 H331         3.0250     4.3020     2.0050 h1         1 8NC       0.100700
     39 H332         2.4760     5.9840     2.1800 h1         1 8NC       0.100700
     40 H333         1.2840     4.6650     2.1440 h1         1 8NC       0.100700
     41 H2           0.7520     1.5140    -1.8430 hc         1 8NC       0.110700
     42 H3           1.9700     1.4130     0.9480 hc         1 8NC       0.075700
     43 H81C        -0.2200     3.6120    -1.1790 h1         1 8NC       0.066200
     44 H82C         0.0690     3.2890     0.5380 h1         1 8NC       0.066200
     45 H91C         3.6460     2.8850     0.1470 h1         1 8NC       0.075200
     46 H92C         3.3050     2.5350    -1.5480 h1         1 8NC       0.075200
     47 H12         -1.5940     1.4880    -1.6540 hn         1 8NC       0.170000
     48 H21         -6.6950     0.2300     2.0790 h4         1 8NC       0.204000
     49 H14          3.1880    -0.2400     1.2900 hn         1 8NC       0.156000
     50 H25         -8.8520    -3.5620    -0.1650 ha         1 8NC       0.210000
     51 H13         -6.0960     1.0460    -0.7150 ha         1 8NC       0.145000
     52 H28         -4.2060    -2.3840     1.0390 ha         1 8NC       0.139000
     53 H29         -2.0140    -1.5070     0.4060 ha         1 8NC       0.150000
     54 H18          4.1630    -1.9120     2.4170 ha         1 8NC       0.130000
     55 H30         -8.9400    -0.4870     2.8440 ha         1 8NC       0.202000
     56 H36          3.9930    -2.0670    -1.8790 ha         1 8NC       0.151000
     57 H31        -10.0210    -2.4410     1.6790 ha         1 8NC       0.187000
     58 H32          5.2020    -4.1500    -1.8460 ha         1 8NC       0.124000
     59 H381         5.4840    -6.4260    -1.2930 h1         1 8NC       0.044033
     60 H382         7.0290    -5.5550    -1.4280 h1         1 8NC       0.044033
     61 H383         6.9180    -7.0190    -0.4350 h1         1 8NC       0.044033
     62 F35          5.4620    -4.1080     2.6350 f          1 8NC      -0.165000
@<TRIPOS>BOND
     1     1     4 1   
     2     1    19 2   
     3     1    20 2   
     4     1    33 1   
     5     2     3 1   
     6     2     5 1   
     7     2     8 1   
     8     2    41 1   
     9     3     7 1   
    10     3     9 1   
    11     3    42 1   
    12     4     8 1   
    13     4     9 1   
    14     5    12 1   
    15     5    23 2   
    16     6    10 1   
    17     6    11 1   
    18     6    21 1   
    19     7    14 1   
    20     7    24 2   
    21     8    43 1   
    22     8    44 1   
    23     9    45 1   
    24     9    46 1   
    25    10    25 1   
    26    10    27 2   
    27    11    13 ar  
    28    11    28 ar  
    29    12    15 1   
    30    12    47 1   
    31    13    16 ar  
    32    13    51 1   
    33    14    22 1   
    34    14    49 1   
    35    15    16 ar  
    36    15    29 ar  
    37    16    34 1   
    38    17    18 ar  
    39    17    26 ar  
    40    17    62 1   
    41    18    22 ar  
    42    18    54 1   
    43    21    30 2   
    44    21    48 1   
    45    22    35 ar  
    46    25    31 2   
    47    25    50 1   
    48    26    32 ar  
    49    26    36 1   
    50    28    29 ar  
    51    28    52 1   
    52    29    53 1   
    53    30    31 1   
    54    30    55 1   
    55    31    57 1   
    56    32    35 ar  
    57    32    58 1   
    58    33    38 1   
    59    33    39 1   
    60    33    40 1   
    61    35    56 1   
    62    36    37 1   
    63    37    59 1   
    64    37    60 1   
    65    37    61 1   
@<TRIPOS>SUBSTRUCTURE
     1 8NC         1 TEMP              0 ****  ****    0 ROOT
