@<TRIPOS>MOLECULE
8ND
  116   115     1     0     0
SMALL
bcc


@<TRIPOS>ATOM
      1 C2           0.4720     5.8120     0.9810 c3         1 8ND       0.142100
      2 C1           0.3550     6.3660    -0.4290 c3         1 8ND       0.127400
      3 C3          -0.8520     5.6440     1.6840 c3         1 8ND       0.140400
      4 C11          2.9300     3.0950     0.6340 c3         1 8ND      -0.141400
      5 C12          4.3790     2.8190     1.0030 c3         1 8ND      -0.064400
      6 C13          4.8310     1.4430     0.5320 c3         1 8ND      -0.076400
      7 C14          6.2960     1.1610     0.8430 c3         1 8ND      -0.074400
      8 C15          6.7530    -0.2200     0.3870 c3         1 8ND      -0.074400
      9 C16          8.2350    -0.4730     0.6350 c3         1 8ND      -0.074400
     10 C17          8.7000    -1.8510     0.1800 c3         1 8ND      -0.074400
     11 C18         10.1970    -2.0670     0.3610 c3         1 8ND      -0.074400
     12 C19         10.6740    -3.4390    -0.1000 c3         1 8ND      -0.073400
     13 C20         12.1810    -3.6220     0.0290 c3         1 8ND      -0.074400
     14 C21         12.6700    -4.9870    -0.4400 c3         1 8ND      -0.074400
     15 C22         14.1810    -5.1500    -0.3380 c3         1 8ND      -0.074400
     16 C23         14.6770    -6.5100    -0.8110 c3         1 8ND      -0.075400
     17 C24         16.1890    -6.6690    -0.7120 c3         1 8ND      -0.074400
     18 C25         16.6760    -8.0290    -1.1920 c3         1 8ND      -0.088100
     19 C30         -2.8930     4.4990     1.3660 c          1 8ND       0.641100
     20 C31         -3.6060     3.5120     0.4840 c3         1 8ND      -0.137400
     21 C32         -4.9960     3.1470     0.9770 c3         1 8ND      -0.068400
     22 C33         -5.6500     2.0870     0.0990 c3         1 8ND      -0.076400
     23 C34         -7.0280     1.6740     0.5990 c3         1 8ND      -0.074400
     24 C35         -7.6590     0.5590    -0.2270 c3         1 8ND      -0.074400
     25 C36         -9.0120     0.1100     0.3100 c3         1 8ND      -0.074400
     26 C37         -9.6170    -1.0530    -0.4670 c3         1 8ND      -0.074400
     27 C38        -10.9420    -1.5350     0.1110 c3         1 8ND      -0.074400
     28 C39        -11.5270    -2.7340    -0.6250 c3         1 8ND      -0.073400
     29 C40        -12.8280    -3.2370    -0.0110 c3         1 8ND      -0.074400
     30 C41        -13.4020    -4.4580    -0.7180 c3         1 8ND      -0.074400
     31 C42        -14.6830    -4.9760    -0.0760 c3         1 8ND      -0.074400
     32 C43        -15.2550    -6.2080    -0.7680 c3         1 8ND      -0.075400
     33 C44        -16.5250    -6.7320    -0.1110 c3         1 8ND      -0.075400
     34 C45        -17.0940    -7.9630    -0.8040 c3         1 8ND      -0.088100
     35 O4           3.0970     5.2900     1.6060 o          1 8ND      -0.537000
     36 O5          -3.3490     5.0080     2.3580 o          1 8ND      -0.536000
     37 O2           1.1090     4.5350     0.8930 os         1 8ND      -0.424900
     38 O3          -1.6640     4.7520     0.9210 os         1 8ND      -0.420900
     39 O3P          1.6530     6.5690    -0.9150 os         1 8ND      -0.420600
     40 H1           1.0670     6.4960     1.5930 h1         1 8ND       0.087700
     41 H2          -0.2010     5.6620    -1.0610 h1         1 8ND       0.041700
     42 H3          -0.2180     7.3030    -0.4040 h1         1 8ND       0.041700
     43 H4          -0.6940     5.2490     2.6900 h1         1 8ND       0.062200
     44 H5          -1.3310     6.6220     1.7780 h1         1 8ND       0.062200
     45 H6           2.2740     2.3090     1.0200 hc         1 8ND       0.077200
     46 H7           2.8090     3.0760    -0.4550 hc         1 8ND       0.077200
     47 H8           5.0240     3.5830     0.5600 hc         1 8ND       0.050700
     48 H9           4.5090     2.8950     2.0860 hc         1 8ND       0.050700
     49 H10          4.2050     0.6740     0.9970 hc         1 8ND       0.038700
     50 H11          4.6680     1.3560    -0.5480 hc         1 8ND       0.038700
     51 H12          6.9180     1.9240     0.3620 hc         1 8ND       0.039200
     52 H13          6.4670     1.2630     1.9200 hc         1 8ND       0.039200
     53 H14          6.1600    -0.9860     0.8970 hc         1 8ND       0.037200
     54 H15          6.5430    -0.3360    -0.6820 hc         1 8ND       0.037200
     55 H16          8.8200     0.2950     0.1160 hc         1 8ND       0.037200
     56 H17          8.4530    -0.3490     1.7020 hc         1 8ND       0.037200
     57 H18          8.1500    -2.6220     0.7300 hc         1 8ND       0.037200
     58 H19          8.4410    -1.9890    -0.8760 hc         1 8ND       0.037200
     59 H20         10.7390    -1.2920    -0.1930 hc         1 8ND       0.037200
     60 H21         10.4620    -1.9250     1.4150 hc         1 8ND       0.037200
     61 H22         10.1620    -4.2170     0.4760 hc         1 8ND       0.037200
     62 H23         10.3800    -3.5920    -1.1440 hc         1 8ND       0.037200
     63 H24         12.6880    -2.8390    -0.5470 hc         1 8ND       0.037200
     64 H25         12.4790    -3.4680     1.0720 hc         1 8ND       0.037200
     65 H26         12.1790    -5.7710     0.1460 hc         1 8ND       0.037200
     66 H27         12.3580    -5.1460    -1.4780 hc         1 8ND       0.037200
     67 H28         14.6690    -4.3620    -0.9230 hc         1 8ND       0.036700
     68 H29         14.4940    -4.9910     0.7010 hc         1 8ND       0.036700
     69 H30         14.1920    -7.2990    -0.2260 hc         1 8ND       0.036700
     70 H31         14.3640    -6.6700    -1.8490 hc         1 8ND       0.036700
     71 H32         16.6740    -5.8800    -1.2960 hc         1 8ND       0.036700
     72 H33         16.5020    -6.5130     0.3250 hc         1 8ND       0.036700
     73 H34         16.4220    -8.1910    -2.2420 hc         1 8ND       0.031367
     74 H35         17.7580    -8.1260    -1.0970 hc         1 8ND       0.031367
     75 H36         16.2200    -8.8370    -0.6170 hc         1 8ND       0.031367
     76 H37         -3.6500     3.9260    -0.5290 hc         1 8ND       0.071700
     77 H38         -2.9810     2.6170     0.4050 hc         1 8ND       0.071700
     78 H39         -4.9380     2.7750     2.0040 hc         1 8ND       0.054700
     79 H40         -5.6280     4.0380     1.0070 hc         1 8ND       0.054700
     80 H41         -5.7260     2.4550    -0.9300 hc         1 8ND       0.037700
     81 H42         -5.0020     1.2040     0.0580 hc         1 8ND       0.037700
     82 H43         -6.9480     1.3460     1.6410 hc         1 8ND       0.040200
     83 H44         -7.6920     2.5450     0.6060 hc         1 8ND       0.040200
     84 H45         -7.7650     0.8870    -1.2660 hc         1 8ND       0.037200
     85 H46         -6.9770    -0.2990    -0.2480 hc         1 8ND       0.037200
     86 H47         -8.9020    -0.1800     1.3610 hc         1 8ND       0.037700
     87 H48         -9.7090     0.9560     0.3020 hc         1 8ND       0.037700
     88 H49         -9.7580    -0.7620    -1.5140 hc         1 8ND       0.037200
     89 H50         -8.9050    -1.8860    -0.4780 hc         1 8ND       0.037200
     90 H51        -10.7980    -1.7960     1.1650 hc         1 8ND       0.037200
     91 H52        -11.6660    -0.7120     0.1010 hc         1 8ND       0.037200
     92 H53        -11.6960    -2.4720    -1.6750 hc         1 8ND       0.037200
     93 H54        -10.7920    -3.5470    -0.6290 hc         1 8ND       0.037200
     94 H55        -12.6560    -3.4790     1.0440 hc         1 8ND       0.037200
     95 H56        -13.5700    -2.4310    -0.0180 hc         1 8ND       0.037200
     96 H57        -13.5930    -4.2150    -1.7690 hc         1 8ND       0.036700
     97 H58        -12.6520    -5.2570    -0.7250 hc         1 8ND       0.036700
     98 H59        -14.4890    -5.2110     0.9760 hc         1 8ND       0.036700
     99 H60        -15.4360    -4.1800    -0.0740 hc         1 8ND       0.036700
    100 H61        -15.4610    -5.9730    -1.8190 hc         1 8ND       0.036700
    101 H62        -14.4990    -7.0010    -0.7790 hc         1 8ND       0.036700
    102 H63        -16.3170    -6.9680     0.9380 hc         1 8ND       0.036700
    103 H64        -17.2790    -5.9390    -0.0980 hc         1 8ND       0.036700
    104 H65        -17.3580    -7.7470    -1.8410 hc         1 8ND       0.031367
    105 H66        -16.3710    -8.7810    -0.8130 hc         1 8ND       0.031367
    106 H67        -17.9940    -8.3220    -0.3030 hc         1 8ND       0.031367
    107 C4           1.8040     6.4320    -2.3110 c3         1 8ND       0.142400
    108 C5           3.2780     6.4960    -2.6420 c3         1 8ND       0.152800
    109 N1           4.0060     5.4000    -2.0220 n8         1 8ND      -0.893800
    110 H68          1.3920     5.4710    -2.6460 h1         1 8ND       0.030200
    111 H69          1.2720     7.2270    -2.8490 h1         1 8ND       0.030200
    112 H70          3.3710     6.4090    -3.7260 h1         1 8ND       0.035200
    113 H71          3.6620     7.4920    -2.3770 h1         1 8ND       0.035200
    114 H72          4.9700     5.4200    -2.3290 hn         1 8ND       0.346300
    115 H73          4.0370     5.5420    -1.0210 hn         1 8ND       0.346300
    116 C10          2.4210     4.4280     1.1050 c          1 8ND       0.658100
@<TRIPOS>BOND
     1     1     2 1   
     2     1     3 1   
     3     1    37 1   
     4     1    40 1   
     5     2    39 1   
     6     2    41 1   
     7     2    42 1   
     8     3    38 1   
     9     3    43 1   
    10     3    44 1   
    11     4     5 1   
    12     4    45 1   
    13     4    46 1   
    14     4   116 1   
    15     5     6 1   
    16     5    47 1   
    17     5    48 1   
    18     6     7 1   
    19     6    49 1   
    20     6    50 1   
    21     7     8 1   
    22     7    51 1   
    23     7    52 1   
    24     8     9 1   
    25     8    53 1   
    26     8    54 1   
    27     9    10 1   
    28     9    55 1   
    29     9    56 1   
    30    10    11 1   
    31    10    57 1   
    32    10    58 1   
    33    11    12 1   
    34    11    59 1   
    35    11    60 1   
    36    12    13 1   
    37    12    61 1   
    38    12    62 1   
    39    13    14 1   
    40    13    63 1   
    41    13    64 1   
    42    14    15 1   
    43    14    65 1   
    44    14    66 1   
    45    15    16 1   
    46    15    67 1   
    47    15    68 1   
    48    16    17 1   
    49    16    69 1   
    50    16    70 1   
    51    17    18 1   
    52    17    71 1   
    53    17    72 1   
    54    18    73 1   
    55    18    74 1   
    56    18    75 1   
    57    19    20 1   
    58    19    36 2   
    59    19    38 1   
    60    20    21 1   
    61    20    76 1   
    62    20    77 1   
    63    21    22 1   
    64    21    78 1   
    65    21    79 1   
    66    22    23 1   
    67    22    80 1   
    68    22    81 1   
    69    23    24 1   
    70    23    82 1   
    71    23    83 1   
    72    24    25 1   
    73    24    84 1   
    74    24    85 1   
    75    25    26 1   
    76    25    86 1   
    77    25    87 1   
    78    26    27 1   
    79    26    88 1   
    80    26    89 1   
    81    27    28 1   
    82    27    90 1   
    83    27    91 1   
    84    28    29 1   
    85    28    92 1   
    86    28    93 1   
    87    29    30 1   
    88    29    94 1   
    89    29    95 1   
    90    30    31 1   
    91    30    96 1   
    92    30    97 1   
    93    31    32 1   
    94    31    98 1   
    95    31    99 1   
    96    32    33 1   
    97    32   100 1   
    98    32   101 1   
    99    33    34 1   
   100    33   102 1   
   101    33   103 1   
   102    34   104 1   
   103    34   105 1   
   104    34   106 1   
   105    35   116 2   
   106    37   116 1   
   107    39   107 1   
   108   107   108 1   
   109   107   110 1   
   110   107   111 1   
   111   108   109 1   
   112   108   112 1   
   113   108   113 1   
   114   109   114 1   
   115   109   115 1   
@<TRIPOS>SUBSTRUCTURE
     1 8ND         1 TEMP              0 ****  ****    0 ROOT
