@<TRIPOS>MOLECULE
8ND
  116   115     1     0     0
SMALL
No Charge or Current Charge


@<TRIPOS>ATOM
      1 C2           0.4620     7.3180     1.0780 c3         1 8ND       0.165300
      2 C1           0.8810     7.4400    -0.4140 c3         1 8ND       0.150600
      3 C3          -1.0730     7.4040     1.2730 c3         1 8ND       0.163600
      4 C11          2.4940     4.4770     2.4950 c3         1 8ND      -0.141400
      5 C12          3.4170     3.7940     1.4590 c3         1 8ND      -0.064400
      6 C13          3.8080     2.3530     1.8550 c3         1 8ND      -0.076400
      7 C14          4.7690     1.6850     0.8460 c3         1 8ND      -0.074400
      8 C15          5.1960     0.2620     1.2700 c3         1 8ND      -0.074400
      9 C16          6.1870    -0.3960     0.2840 c3         1 8ND      -0.074400
     10 C17          6.6450    -1.8010     0.7340 c3         1 8ND      -0.074400
     11 C18          7.6560    -2.4520    -0.2370 c3         1 8ND      -0.074400
     12 C19          8.1310    -3.8450     0.2330 c3         1 8ND      -0.073400
     13 C20          9.1600    -4.4910    -0.7210 c3         1 8ND      -0.074400
     14 C21          9.6430    -5.8780    -0.2410 c3         1 8ND      -0.074400
     15 C22         10.6780    -6.5200    -1.1910 c3         1 8ND      -0.074400
     16 C23         11.1660    -7.9050    -0.7110 c3         1 8ND      -0.075400
     17 C24         12.1980    -8.5460    -1.6650 c3         1 8ND      -0.074400
     18 C25         12.6840    -9.9300    -1.1890 c3         1 8ND      -0.088100
     19 C30         -3.0990     6.4000     0.4430 c          1 8ND       0.592100
     20 C31         -3.6590     5.3270    -0.4940 c3         1 8ND      -0.137400
     21 C32         -4.1740     4.0990     0.2950 c3         1 8ND      -0.068400
     22 C33         -4.8620     3.0470    -0.6040 c3         1 8ND      -0.076400
     23 C34         -5.4410     1.8560     0.1920 c3         1 8ND      -0.074400
     24 C35         -6.1850     0.8350    -0.6990 c3         1 8ND      -0.074400
     25 C36         -6.8120    -0.3250     0.1050 c3         1 8ND      -0.074400
     26 C37         -7.5920    -1.3250    -0.7780 c3         1 8ND      -0.074400
     27 C38         -8.2630    -2.4530     0.0380 c3         1 8ND      -0.074400
     28 C39         -9.0730    -3.4340    -0.8380 c3         1 8ND      -0.073400
     29 C40         -9.7920    -4.5270    -0.0150 c3         1 8ND      -0.074400
     30 C41        -10.6240    -5.4920    -0.8880 c3         1 8ND      -0.074400
     31 C42        -11.3810    -6.5550    -0.0610 c3         1 8ND      -0.074400
     32 C43        -12.2320    -7.5060    -0.9320 c3         1 8ND      -0.075400
     33 C44        -13.0120    -8.5510    -0.1040 c3         1 8ND      -0.075400
     34 C45        -13.8640    -9.4940    -0.9740 c3         1 8ND      -0.088100
     35 O4           2.9350     6.8550     2.3160 o          1 8ND      -0.488000
     36 O5          -3.8010     7.1820     1.0700 o          1 8ND      -0.487000
     37 O2           0.9050     6.0390     1.6010 os         1 8ND      -0.448100
     38 O3          -1.7290     6.4250     0.4380 os         1 8ND      -0.444100
     39 O3P          2.2920     7.7230    -0.4900 os         1 8ND      -0.467000
     40 H1           0.8990     8.1530     1.6410 h1         1 8ND       0.087700
     41 H2           0.6400     6.5060    -0.9390 h1         1 8ND       0.041700
     42 H3           0.3100     8.2510    -0.8850 h1         1 8ND       0.041700
     43 H4          -1.3110     7.2380     2.3320 h1         1 8ND       0.062200
     44 H5          -1.4030     8.4180     1.0090 h1         1 8ND       0.062200
     45 H6           2.9930     4.4840     3.4710 hc         1 8ND       0.077200
     46 H7           1.5610     3.9020     2.5430 hc         1 8ND       0.077200
     47 H8           2.9170     3.7800     0.4820 hc         1 8ND       0.050700
     48 H9           4.3290     4.3930     1.3420 hc         1 8ND       0.050700
     49 H10          4.2840     2.3700     2.8440 hc         1 8ND       0.038700
     50 H11          2.9000     1.7440     1.9470 hc         1 8ND       0.038700
     51 H12          4.2870     1.6400    -0.1390 hc         1 8ND       0.039200
     52 H13          5.6640     2.3100     0.7350 hc         1 8ND       0.039200
     53 H14          5.6590     0.3090     2.2640 hc         1 8ND       0.037200
     54 H15          4.3040    -0.3700     1.3620 hc         1 8ND       0.037200
     55 H16          5.7180    -0.4680    -0.7050 hc         1 8ND       0.037200
     56 H17          7.0680     0.2500     0.1750 hc         1 8ND       0.037200
     57 H18          7.1010    -1.7270     1.7290 hc         1 8ND       0.037200
     58 H19          5.7680    -2.4520     0.8320 hc         1 8ND       0.037200
     59 H20          7.1960    -2.5420    -1.2290 hc         1 8ND       0.037200
     60 H21          8.5260    -1.7920    -0.3450 hc         1 8ND       0.037200
     61 H22          8.5760    -3.7540     1.2310 hc         1 8ND       0.037200
     62 H23          7.2620    -4.5080     0.3290 hc         1 8ND       0.037200
     63 H24          8.7140    -4.5900    -1.7190 hc         1 8ND       0.037200
     64 H25         10.0250    -3.8240    -0.8220 hc         1 8ND       0.037200
     65 H26         10.0840    -5.7790     0.7580 hc         1 8ND       0.037200
     66 H27          8.7780    -6.5470    -0.1450 hc         1 8ND       0.037200
     67 H28         10.2350    -6.6210    -2.1900 hc         1 8ND       0.036700
     68 H29         11.5410    -5.8490    -1.2890 hc         1 8ND       0.036700
     69 H30         11.6120    -7.8040     0.2860 hc         1 8ND       0.036700
     70 H31         10.3030    -8.5760    -0.6110 hc         1 8ND       0.036700
     71 H32         11.7560    -8.6490    -2.6640 hc         1 8ND       0.036700
     72 H33         13.0640    -7.8800    -1.7650 hc         1 8ND       0.036700
     73 H34         11.8440   -10.6300    -1.1110 hc         1 8ND       0.031367
     74 H35         13.4110   -10.3440    -1.8980 hc         1 8ND       0.031367
     75 H36         13.1660    -9.8550    -0.2070 hc         1 8ND       0.031367
     76 H37         -4.4920     5.7590    -1.0610 hc         1 8ND       0.071700
     77 H38         -2.8700     4.9870    -1.1760 hc         1 8ND       0.071700
     78 H39         -3.3350     3.6320     0.8290 hc         1 8ND       0.054700
     79 H40         -4.8880     4.4370     1.0570 hc         1 8ND       0.054700
     80 H41         -5.6730     3.5300    -1.1630 hc         1 8ND       0.037700
     81 H42         -4.1410     2.6730    -1.3420 hc         1 8ND       0.037700
     82 H43         -4.6290     1.3470     0.7260 hc         1 8ND       0.040200
     83 H44         -6.1350     2.2370     0.9520 hc         1 8ND       0.040200
     84 H45         -6.9770     1.3540    -1.2530 hc         1 8ND       0.037200
     85 H46         -5.4880     0.4270    -1.4410 hc         1 8ND       0.037200
     86 H47         -6.0200    -0.8610     0.6440 hc         1 8ND       0.037700
     87 H48         -7.4910     0.0890     0.8610 hc         1 8ND       0.037700
     88 H49         -8.3630    -0.7830    -1.3390 hc         1 8ND       0.037200
     89 H50         -6.9100    -1.7670    -1.5150 hc         1 8ND       0.037200
     90 H51         -7.4930    -3.0100     0.5860 hc         1 8ND       0.037200
     91 H52         -8.9290    -2.0050     0.7860 hc         1 8ND       0.037200
     92 H53         -9.8190    -2.8710    -1.4120 hc         1 8ND       0.037200
     93 H54         -8.4020    -3.9110    -1.5630 hc         1 8ND       0.037200
     94 H55         -9.0480    -5.1020     0.5510 hc         1 8ND       0.037200
     95 H56        -10.4520    -4.0470     0.7180 hc         1 8ND       0.037200
     96 H57        -11.3480    -4.9120    -1.4750 hc         1 8ND       0.036700
     97 H58         -9.9610    -5.9950    -1.6030 hc         1 8ND       0.036700
     98 H59        -10.6590    -7.1440     0.5180 hc         1 8ND       0.036700
     99 H60        -12.0350    -6.0490     0.6600 hc         1 8ND       0.036700
    100 H61        -12.9420    -6.9140    -1.5230 hc         1 8ND       0.036700
    101 H62        -11.5770    -8.0250    -1.6430 hc         1 8ND       0.036700
    102 H63        -12.3060    -9.1490     0.4850 hc         1 8ND       0.036700
    103 H64        -13.6670    -8.0340     0.6080 hc         1 8ND       0.036700
    104 H65        -14.6020    -8.9270    -1.5540 hc         1 8ND       0.031367
    105 H66        -13.2310   -10.0550    -1.6730 hc         1 8ND       0.031367
    106 H67        -14.4010   -10.2140    -0.3450 hc         1 8ND       0.031367
    107 C4           2.8260     7.7890    -1.8280 c3         1 8ND       0.165600
    108 C5           4.3390     8.1350    -1.7340 c3         1 8ND       0.152800
    109 N1           5.1120     7.1720    -0.9090 n8         1 8ND      -1.004200
    110 H68          2.7020     6.8270    -2.3430 h1         1 8ND       0.030200
    111 H69          2.3150     8.5630    -2.4140 h1         1 8ND       0.030200
    112 H70          4.7740     8.1710    -2.7430 h1         1 8ND       0.035200
    113 H71          4.4390     9.1330    -1.2860 h1         1 8ND       0.035200
    114 H72          6.0220     7.5860    -0.6760 hn         1 8ND       0.401500
    115 H73          4.6350     7.1010    -0.0010 hn         1 8ND       0.401500
    116 C10          2.1820     5.9180     2.0880 c          1 8ND       0.609100
@<TRIPOS>BOND
     1     1     2 1   
     2     1     3 1   
     3     1    37 1   
     4     1    40 1   
     5     2    39 1   
     6     2    41 1   
     7     2    42 1   
     8     3    38 1   
     9     3    43 1   
    10     3    44 1   
    11     4     5 1   
    12     4    45 1   
    13     4    46 1   
    14     4   116 1   
    15     5     6 1   
    16     5    47 1   
    17     5    48 1   
    18     6     7 1   
    19     6    49 1   
    20     6    50 1   
    21     7     8 1   
    22     7    51 1   
    23     7    52 1   
    24     8     9 1   
    25     8    53 1   
    26     8    54 1   
    27     9    10 1   
    28     9    55 1   
    29     9    56 1   
    30    10    11 1   
    31    10    57 1   
    32    10    58 1   
    33    11    12 1   
    34    11    59 1   
    35    11    60 1   
    36    12    13 1   
    37    12    61 1   
    38    12    62 1   
    39    13    14 1   
    40    13    63 1   
    41    13    64 1   
    42    14    15 1   
    43    14    65 1   
    44    14    66 1   
    45    15    16 1   
    46    15    67 1   
    47    15    68 1   
    48    16    17 1   
    49    16    69 1   
    50    16    70 1   
    51    17    18 1   
    52    17    71 1   
    53    17    72 1   
    54    18    73 1   
    55    18    74 1   
    56    18    75 1   
    57    19    20 1   
    58    19    36 2   
    59    19    38 1   
    60    20    21 1   
    61    20    76 1   
    62    20    77 1   
    63    21    22 1   
    64    21    78 1   
    65    21    79 1   
    66    22    23 1   
    67    22    80 1   
    68    22    81 1   
    69    23    24 1   
    70    23    82 1   
    71    23    83 1   
    72    24    25 1   
    73    24    84 1   
    74    24    85 1   
    75    25    26 1   
    76    25    86 1   
    77    25    87 1   
    78    26    27 1   
    79    26    88 1   
    80    26    89 1   
    81    27    28 1   
    82    27    90 1   
    83    27    91 1   
    84    28    29 1   
    85    28    92 1   
    86    28    93 1   
    87    29    30 1   
    88    29    94 1   
    89    29    95 1   
    90    30    31 1   
    91    30    96 1   
    92    30    97 1   
    93    31    32 1   
    94    31    98 1   
    95    31    99 1   
    96    32    33 1   
    97    32   100 1   
    98    32   101 1   
    99    33    34 1   
   100    33   102 1   
   101    33   103 1   
   102    34   104 1   
   103    34   105 1   
   104    34   106 1   
   105    35   116 2   
   106    37   116 1   
   107    39   107 1   
   108   107   108 1   
   109   107   110 1   
   110   107   111 1   
   111   108   109 1   
   112   108   112 1   
   113   108   113 1   
   114   109   114 1   
   115   109   115 1   
@<TRIPOS>SUBSTRUCTURE
     1 8ND         1 TEMP              0 ****  ****    0 ROOT
