@<TRIPOS>MOLECULE
8NE
   21    21     1     0     0
SMALL
No Charge or Current Charge


@<TRIPOS>ATOM
      1 C1           1.1040     1.1940     0.2870 ca         1 8NE      -0.070000
      2 C2          -0.3010     1.2040     0.2690 ca         1 8NE      -0.048000
      3 C3          -1.0250     0.0310    -0.0350 ca         1 8NE      -0.133300
      4 C4          -0.3100    -1.1560    -0.3050 ca         1 8NE      -0.048000
      5 C5           1.0950    -1.1670    -0.2850 ca         1 8NE      -0.070000
      6 C6           1.8210     0.0090     0.0090 ca         1 8NE      -0.235900
      7 C7           3.3120    -0.0010     0.0290 ce         1 8NE       0.518400
      8 N8           3.9730    -1.1140     0.4750 nv         1 8NE      -0.563700
      9 N9           4.0010     1.1010    -0.4000 nv         1 8NE      -0.547800
     10 C10         -2.5580     0.0390    -0.0450 c3         1 8NE       0.359300
     11 F11         -3.0640     1.2440    -0.3960 f          1 8NE      -0.094333
     12 F12         -3.0720    -0.8620    -0.9140 f          1 8NE      -0.094333
     13 F13         -3.0580    -0.2590     1.1750 f          1 8NE      -0.094333
     14 H1           1.6300     2.1150     0.5360 ha         1 8NE       0.135000
     15 H2          -0.8250     2.1300     0.4980 ha         1 8NE       0.163000
     16 H4          -0.8410    -2.0790    -0.5310 ha         1 8NE       0.163000
     17 H5           1.6140    -2.0970    -0.5130 ha         1 8NE       0.135000
     18 HN8          3.4350    -1.8030     0.9820 hn         1 8NE       0.381750
     19 HN9          3.4870     1.7980    -0.9200 hn         1 8NE       0.381750
     20 HN9A         4.9890     1.0100    -0.5910 hn         1 8NE       0.381750
     21 H3           4.9570    -1.0370     0.6940 hn         1 8NE       0.381750
@<TRIPOS>BOND
     1     1     2 ar  
     2     1     6 ar  
     3     1    14 1   
     4     2     3 ar  
     5     2    15 1   
     6     3     4 ar  
     7     3    10 1   
     8     4     5 ar  
     9     4    16 1   
    10     5     6 ar  
    11     5    17 1   
    12     6     7 1   
    13     7     8 2   
    14     7     9 1   
    15     8    18 1   
    16     8    21 1   
    17     9    19 1   
    18     9    20 1   
    19    10    11 1   
    20    10    12 1   
    21    10    13 1   
@<TRIPOS>SUBSTRUCTURE
     1 8NE         1 TEMP              0 ****  ****    0 ROOT
