@<TRIPOS>MOLECULE
8NE
   21    21     1     0     0
SMALL
abcg2


@<TRIPOS>ATOM
      1 C1           1.1030     1.1900     0.2720 ca         1 8NE      -0.070000
      2 C2          -0.2810     1.2000     0.2500 ca         1 8NE      -0.048000
      3 C3          -0.9760     0.0360    -0.0500 ca         1 8NE      -0.133300
      4 C4          -0.2900    -1.1420    -0.3190 ca         1 8NE      -0.048000
      5 C5           1.0940    -1.1560    -0.2880 ca         1 8NE      -0.070000
      6 C6           1.7920     0.0110     0.0060 ca         1 8NE      -0.235900
      7 C7           3.2660    -0.0020     0.0330 ce         1 8NE       0.518400
      8 N8           3.8800    -1.0320     0.5570 nv         1 8NE      -0.563700
      9 N9           3.9190     1.0160    -0.4670 nv         1 8NE      -0.547800
     10 C10         -2.4760     0.0340    -0.0320 c3         1 8NE       0.359300
     11 F11         -2.9840     1.2320    -0.3360 f          1 8NE      -0.094333
     12 F12         -2.9870    -0.8450    -0.8990 f          1 8NE      -0.094333
     13 F13         -2.9430    -0.2950     1.1800 f          1 8NE      -0.094333
     14 H1           1.6330     2.1000     0.5220 ha         1 8NE       0.135000
     15 H2          -0.8000     2.1220     0.4730 ha         1 8NE       0.163000
     16 H4          -0.8150    -2.0550    -0.5620 ha         1 8NE       0.163000
     17 H5           1.6170    -2.0740    -0.5200 ha         1 8NE       0.135000
     18 HN8          3.3640    -1.7500     1.0400 hn         1 8NE       0.381750
     19 HN9          3.4360     1.7440    -0.9690 hn         1 8NE       0.381750
     20 HN9A         4.9260     1.0800    -0.4290 hn         1 8NE       0.381750
     21 H3           4.8860    -1.1140     0.5580 hn         1 8NE       0.381750
@<TRIPOS>BOND
     1     1     2 ar  
     2     1     6 ar  
     3     1    14 1   
     4     2     3 ar  
     5     2    15 1   
     6     3     4 ar  
     7     3    10 1   
     8     4     5 ar  
     9     4    16 1   
    10     5     6 ar  
    11     5    17 1   
    12     6     7 1   
    13     7     8 2   
    14     7     9 1   
    15     8    18 1   
    16     8    21 1   
    17     9    19 1   
    18     9    20 1   
    19    10    11 1   
    20    10    12 1   
    21    10    13 1   
@<TRIPOS>SUBSTRUCTURE
     1 8NE         1 TEMP              0 ****  ****    0 ROOT
