@<TRIPOS>MOLECULE
8NF
   19    19     1     0     0
SMALL
abcg2


@<TRIPOS>ATOM
      1 C01         13.0980    20.0320    41.1200 c3         1 8NF      -0.046800
      2 C02         14.1930    21.0400    41.2740 ca         1 8NF      -0.095300
      3 C03         15.3850    20.7320    41.9060 ca         1 8NF      -0.128000
      4 C04         16.4020    21.6770    42.0280 ca         1 8NF       0.315300
      5 C06         15.1110    23.2210    40.9430 ca         1 8NF       0.279900
      6 C07         14.0420    22.3430    40.7690 ca         1 8NF       0.224000
      7 C08         17.6930    21.3400    42.7160 c3         1 8NF      -0.137400
      8 N05         16.2510    22.9040    41.5440 nb         1 8NF      -0.646000
      9 N71         12.9080    22.7190    40.0740 nv         1 8NF      -1.058000
     10 H1          12.8410    19.8850    40.0690 hc         1 8NF       0.043700
     11 H2          13.3880    19.0680    41.5340 hc         1 8NF       0.043700
     12 H3          12.1840    20.3480    41.6300 hc         1 8NF       0.043700
     13 H4          15.5310    19.7340    42.3060 ha         1 8NF       0.117000
     14 H5          15.0300    24.2370    40.5660 h4         1 8NF       0.014100
     15 H6          18.3950    22.1690    42.6420 hc         1 8NF       0.047033
     16 H7          17.5370    21.1260    43.7750 hc         1 8NF       0.047033
     17 H8          18.1620    20.4570    42.2790 hc         1 8NF       0.047033
     18 H9          12.0480    22.2900    40.3790 hn         1 8NF       0.443500
     19 H10         12.7890    23.7150    39.9690 hn         1 8NF       0.443500
@<TRIPOS>BOND
     1     1     2 1   
     2     1    10 1   
     3     1    11 1   
     4     1    12 1   
     5     2     3 ar  
     6     2     6 ar  
     7     3     4 ar  
     8     3    13 1   
     9     4     7 1   
    10     4     8 ar  
    11     5     6 ar  
    12     5     8 ar  
    13     5    14 1   
    14     6     9 1   
    15     7    15 1   
    16     7    16 1   
    17     7    17 1   
    18     9    18 1   
    19     9    19 1   
@<TRIPOS>SUBSTRUCTURE
     1 8NF         1 TEMP              0 ****  ****    0 ROOT
