@<TRIPOS>MOLECULE
8NF
   19    19     1     0     0
SMALL
No Charge or Current Charge


@<TRIPOS>ATOM
      1 C01         13.0880    20.0040    41.0880 c3         1 8NF      -0.046800
      2 C02         14.1810    21.0570    41.2630 ca         1 8NF      -0.095300
      3 C03         15.3990    20.7080    41.8850 ca         1 8NF      -0.128000
      4 C04         16.4100    21.6750    42.0480 ca         1 8NF       0.315300
      5 C06         15.1020    23.2940    41.0340 ca         1 8NF       0.279900
      6 C07         14.0200    22.3910    40.8200 ca         1 8NF       0.224000
      7 C08         17.7260    21.3270    42.7180 c3         1 8NF      -0.137400
      8 N05         16.2710    22.9530    41.6330 nb         1 8NF      -0.646000
      9 N71         12.8430    22.7920    40.2020 nv         1 8NF      -1.058000
     10 H1          12.8400    19.8640    40.0290 hc         1 8NF       0.043700
     11 H2          13.3960    19.0280    41.4830 hc         1 8NF       0.043700
     12 H3          12.1720    20.2950    41.6160 hc         1 8NF       0.043700
     13 H4          15.5640    19.6950    42.2430 ha         1 8NF       0.117000
     14 H5          15.0230    24.3310    40.7100 h4         1 8NF       0.014100
     15 H6          18.5650    21.8640    42.2590 hc         1 8NF       0.047033
     16 H7          17.7000    21.5880    43.7830 hc         1 8NF       0.047033
     17 H8          17.9400    20.2550    42.6410 hc         1 8NF       0.047033
     18 H9          12.0570    22.1480    40.1220 hn         1 8NF       0.443500
     19 H10         12.6920    23.7670    39.9450 hn         1 8NF       0.443500
@<TRIPOS>BOND
     1     1     2 1   
     2     1    10 1   
     3     1    11 1   
     4     1    12 1   
     5     2     3 ar  
     6     2     6 ar  
     7     3     4 ar  
     8     3    13 1   
     9     4     7 1   
    10     4     8 ar  
    11     5     6 ar  
    12     5     8 ar  
    13     5    14 1   
    14     6     9 1   
    15     7    15 1   
    16     7    16 1   
    17     7    17 1   
    18     9    18 1   
    19     9    19 1   
@<TRIPOS>SUBSTRUCTURE
     1 8NF         1 TEMP              0 ****  ****    0 ROOT
