@<TRIPOS>MOLECULE
8NG
   51    54     1     0     0
SMALL
No Charge or Current Charge


@<TRIPOS>ATOM
      1 C4          63.1990   -20.5370     9.7150 ca         1 8NG      -0.154000
      2 C5          58.7430   -17.0230    10.0070 cc         1 8NG      -0.174000
      3 C6          57.1220   -18.8350     6.2630 ca         1 8NG      -0.066000
      4 C7          61.2410   -21.4210    10.8620 ca         1 8NG      -0.183000
      5 C8          59.0420   -16.0690    10.9440 cd         1 8NG      -0.151000
      6 C10         58.1530   -18.3940     7.1260 ca         1 8NG      -0.020800
      7 C13         60.9750   -19.7510     9.0970 ca         1 8NG       0.041100
      8 C15         60.4130   -20.6030    10.0790 ca         1 8NG       0.179000
      9 C17         58.0680   -16.0770     6.4260 cd         1 8NG      -0.048400
     10 C20         57.3240   -19.9810     2.1450 c3         1 8NG      -0.063100
     11 C22         56.3140   -19.0180     2.8160 c3         1 8NG      -0.351400
     12 C1          57.9700   -21.1020     6.3280 ca         1 8NG      -0.105000
     13 C2          59.0140   -20.6860     7.1680 ca         1 8NG      -0.163000
     14 C3          62.3710   -19.7150     8.9280 ca         1 8NG      -0.064000
     15 C9          58.5680   -16.3960     8.7590 cc         1 8NG      -0.023800
     16 C11         57.0200   -20.1830     5.8630 ca         1 8NG       0.208000
     17 C12         59.1080   -19.3400     7.5820 ca         1 8NG       0.139100
     18 C14         62.6300   -21.3870    10.6760 ca         1 8NG       0.192000
     19 C16         58.7190   -15.0550     8.9160 cd         1 8NG      -0.251600
     20 C18         58.2120   -16.9630     7.4870 cc         1 8NG      -0.061400
     21 C19         58.5470   -14.0890     7.8130 c          1 8NG       0.582600
     22 N23         59.0340   -14.8390    10.2670 na         1 8NG      -0.088000
     23 N24         58.2070   -14.6860     6.5730 n          1 8NG      -0.279000
     24 O26         58.6830   -12.8810     7.9640 o          1 8NG      -0.581000
     25 O27         54.4310   -20.8820     3.1190 o          1 8NG      -0.533000
     26 O28         54.3370   -18.8240     4.6060 o          1 8NG      -0.533000
     27 O29         60.1990   -18.9180     8.3170 os         1 8NG      -0.222200
     28 F30         63.4270   -22.1740    11.4310 f          1 8NG      -0.171000
     29 F31         59.0760   -20.6400    10.2860 f          1 8NG      -0.161000
     30 S32         55.1110   -19.8340     3.8800 s6         1 8NG       1.197100
     31 H4          64.2780   -20.5140     9.5830 ha         1 8NG       0.143000
     32 H5          58.6330   -18.0840    10.1920 ha         1 8NG       0.145000
     33 H6          56.3750   -18.1220     5.9350 ha         1 8NG       0.154000
     34 H7          60.8080   -22.0760    11.6130 ha         1 8NG       0.155000
     35 H8          59.2380   -16.1590    12.0080 h4         1 8NG       0.148000
     36 H17         57.8690   -16.3840     5.4040 h4         1 8NG       0.204000
     37 H203        58.0080   -19.4210     1.4960 hc         1 8NG       0.046700
     38 H202        57.9270   -20.5080     2.8950 hc         1 8NG       0.046700
     39 H201        56.8070   -20.7270     1.5290 hc         1 8NG       0.046700
     40 H212        57.2510   -13.0470     5.6300 h1         1 8NG       0.053700
     41 H213        58.9650   -13.2810     5.1810 h1         1 8NG       0.053700
     42 H211        57.7110   -14.3660     4.5230 h1         1 8NG       0.053700
     43 H1          57.9140   -22.1440     6.0240 ha         1 8NG       0.116000
     44 H2          59.7600   -21.4140     7.4750 ha         1 8NG       0.128000
     45 H3          62.8090   -19.0520     8.1840 ha         1 8NG       0.140000
     46 H23         59.2100   -13.9310    10.6900 hn         1 8NG       0.365000
     47 H9          56.8360   -18.2880     3.4430 h1         1 8NG       0.102200
     48 H10         55.7280   -18.4860     2.0590 h1         1 8NG       0.102200
     49 H11         56.0660   -21.6030     4.6860 hn         1 8NG       0.488000
     50 N25         56.0090   -20.6500     5.0180 nu         1 8NG      -0.867100
     51 C21         58.0220   -13.7940     5.4060 c3         1 8NG       0.085300
@<TRIPOS>BOND
     1     1    14 ar  
     2     1    18 ar  
     3     1    31 1   
     4     2     5 2   
     5     2    15 1   
     6     2    32 1   
     7     3     6 ar  
     8     3    16 ar  
     9     3    33 1   
    10     4     8 ar  
    11     4    18 ar  
    12     4    34 1   
    13     5    22 1   
    14     5    35 1   
    15     6    17 ar  
    16     6    20 1   
    17     7     8 ar  
    18     7    14 ar  
    19     7    27 1   
    20     8    29 1   
    21     9    20 2   
    22     9    23 1   
    23     9    36 1   
    24    10    11 1   
    25    10    37 1   
    26    10    38 1   
    27    10    39 1   
    28    11    30 1   
    29    11    47 1   
    30    11    48 1   
    31    12    13 ar  
    32    12    16 ar  
    33    12    43 1   
    34    13    17 ar  
    35    13    44 1   
    36    14    45 1   
    37    15    19 2   
    38    15    20 1   
    39    16    50 1   
    40    17    27 1   
    41    18    28 1   
    42    19    21 1   
    43    19    22 1   
    44    21    23 1   
    45    21    24 2   
    46    22    46 1   
    47    23    51 1   
    48    25    30 2   
    49    26    30 2   
    50    30    50 1   
    51    40    51 1   
    52    41    51 1   
    53    42    51 1   
    54    49    50 1   
@<TRIPOS>SUBSTRUCTURE
     1 8NG         1 TEMP              0 ****  ****    0 ROOT
