@<TRIPOS>MOLECULE
8NG
   51    54     1     0     0
SMALL
abcg2


@<TRIPOS>ATOM
      1 C4          63.2120   -20.4900     8.7590 ca         1 8NG      -0.154000
      2 C5          58.2860   -17.0400    10.2260 cc         1 8NG      -0.174000
      3 C6          56.9740   -18.5150     6.3720 ca         1 8NG      -0.066000
      4 C7          61.5850   -21.2440    10.3980 ca         1 8NG      -0.183000
      5 C8          58.3870   -16.0920    11.2230 cd         1 8NG      -0.151000
      6 C10         58.0480   -18.1260     7.1710 ca         1 8NG      -0.020800
      7 C13         60.9810   -19.5700     8.7500 ca         1 8NG       0.041100
      8 C15         60.6650   -20.3770     9.8390 ca         1 8NG       0.179000
      9 C17         58.1630   -15.7130     6.6980 cd         1 8NG      -0.048400
     10 C20         57.2390   -21.5720     2.4650 c3         1 8NG      -0.063100
     11 C22         57.1000   -20.0720     2.6710 c3         1 8NG      -0.351400
     12 C1          57.7920   -20.7740     6.2870 ca         1 8NG      -0.105000
     13 C2          58.8600   -20.4150     7.0980 ca         1 8NG      -0.163000
     14 C3          62.2600   -19.6340     8.2160 ca         1 8NG      -0.064000
     15 C9          58.2850   -16.3370     8.9870 cc         1 8NG      -0.023800
     16 C11         56.8490   -19.8230     5.9140 ca         1 8NG       0.208000
     17 C12         58.9950   -19.1010     7.5220 ca         1 8NG       0.139100
     18 C14         62.8500   -21.2770     9.8360 ca         1 8NG       0.192000
     19 C16         58.3800   -14.9750     9.2960 cd         1 8NG      -0.251600
     20 C18         58.1780   -16.7220     7.6140 cc         1 8NG      -0.061400
     21 C19         58.3790   -13.9200     8.3380 c          1 8NG       0.582600
     22 N23         58.4460   -14.8490    10.6590 na         1 8NG      -0.088000
     23 N24         58.2600   -14.3810     7.0300 n          1 8NG      -0.279000
     24 O26         58.4690   -12.7070     8.5910 o          1 8NG      -0.581000
     25 O27         54.4740   -20.2870     2.9710 o          1 8NG      -0.533000
     26 O28         55.5960   -18.1610     3.6250 o          1 8NG      -0.533000
     27 O29         60.0770   -18.6610     8.2520 os         1 8NG      -0.222200
     28 F30         63.7660   -22.1170    10.3710 f          1 8NG      -0.171000
     29 F31         59.4240   -20.3160    10.3590 f          1 8NG      -0.161000
     30 S32         55.6110   -19.6030     3.5440 s6         1 8NG       1.197100
     31 H4          64.2120   -20.5470     8.3530 ha         1 8NG       0.143000
     32 H5          58.2330   -18.1040    10.3700 ha         1 8NG       0.145000
     33 H6          56.2210   -17.7860     6.1120 ha         1 8NG       0.154000
     34 H7          61.3220   -21.8660    11.2420 ha         1 8NG       0.155000
     35 H8          58.4250   -16.2120    12.2930 h4         1 8NG       0.148000
     36 H17         58.0860   -15.9140     5.6400 h4         1 8NG       0.204000
     37 H203        58.1610   -21.7680     1.9160 hc         1 8NG       0.046700
     38 H202        57.2920   -22.1060     3.4130 hc         1 8NG       0.046700
     39 H201        56.4040   -21.9670     1.8870 hc         1 8NG       0.046700
     40 H212        57.4290   -12.6740     6.1300 h1         1 8NG       0.053700
     41 H213        59.1860   -12.8120     5.9800 h1         1 8NG       0.053700
     42 H211        58.1310   -13.8690     5.0160 h1         1 8NG       0.053700
     43 H1          57.7000   -21.7950     5.9380 ha         1 8NG       0.116000
     44 H2          59.6000   -21.1550     7.3690 ha         1 8NG       0.128000
     45 H3          62.5010   -19.0040     7.3710 ha         1 8NG       0.140000
     46 H23         58.5180   -13.9770    11.1580 hn         1 8NG       0.365000
     47 H9          57.9210   -19.6500     3.2520 h1         1 8NG       0.102200
     48 H10         57.0360   -19.5300     1.7260 h1         1 8NG       0.102200
     49 H11         55.5230   -21.1850     5.1080 hn         1 8NG       0.488000
     50 N25         55.7410   -20.1940     5.0900 nu         1 8NG      -0.867100
     51 C21         58.2510   -13.3710     5.9730 c3         1 8NG       0.085300
@<TRIPOS>BOND
     1     1    14 ar  
     2     1    18 ar  
     3     1    31 1   
     4     2     5 2   
     5     2    15 1   
     6     2    32 1   
     7     3     6 ar  
     8     3    16 ar  
     9     3    33 1   
    10     4     8 ar  
    11     4    18 ar  
    12     4    34 1   
    13     5    22 1   
    14     5    35 1   
    15     6    17 ar  
    16     6    20 1   
    17     7     8 ar  
    18     7    14 ar  
    19     7    27 1   
    20     8    29 1   
    21     9    20 2   
    22     9    23 1   
    23     9    36 1   
    24    10    11 1   
    25    10    37 1   
    26    10    38 1   
    27    10    39 1   
    28    11    30 1   
    29    11    47 1   
    30    11    48 1   
    31    12    13 ar  
    32    12    16 ar  
    33    12    43 1   
    34    13    17 ar  
    35    13    44 1   
    36    14    45 1   
    37    15    19 2   
    38    15    20 1   
    39    16    50 1   
    40    17    27 1   
    41    18    28 1   
    42    19    21 1   
    43    19    22 1   
    44    21    23 1   
    45    21    24 2   
    46    22    46 1   
    47    23    51 1   
    48    25    30 2   
    49    26    30 2   
    50    30    50 1   
    51    40    51 1   
    52    41    51 1   
    53    42    51 1   
    54    49    50 1   
@<TRIPOS>SUBSTRUCTURE
     1 8NG         1 TEMP              0 ****  ****    0 ROOT
