@<TRIPOS>MOLECULE
8NH
   33    35     1     0     0
SMALL
abcg2


@<TRIPOS>ATOM
      1 CL1          7.7800     2.6220     4.9440 cl         1 8NH      -0.169000
      2 C2           6.3440     3.3810     4.3750 ca         1 8NH       0.142000
      3 C3           5.3890     2.6290     3.6930 ca         1 8NH      -0.039300
      4 C4           4.2710     3.3240     3.2240 ca         1 8NH      -0.009000
      5 C5           4.0850     4.6800     3.4580 ca         1 8NH      -0.096000
      6 C7           5.0320     5.3950     4.1610 ca         1 8NH      -0.067000
      7 C9           6.1750     4.7450     4.6150 ca         1 8NH      -0.001000
      8 C10          7.1670     5.4840     5.3230 cg         1 8NH       0.325000
      9 N11          7.9470     6.1040     5.9000 n1         1 8NH      -0.436000
     10 N12          3.2790     2.6440     2.4840 n          1 8NH      -0.228000
     11 C13          3.4680     2.2280     1.1540 c          1 8NH       0.612000
     12 N14          2.2850     1.7350     0.7190 n          1 8NH      -0.373800
     13 C15          1.3410     1.6100     1.8140 c5         1 8NH      -0.014300
     14 C17          1.1410     0.1020     1.9250 c5         1 8NH       0.163300
     15 C19          1.1150    -0.2820     0.4450 c5         1 8NH      -0.143400
     16 C22          2.1930     0.6000    -0.2020 c5         1 8NH       0.100000
     17 O25          2.2730    -0.4020     2.5910 oh         1 8NH      -0.659000
     18 C27          2.0450     2.2810     2.9670 c          1 8NH       0.590000
     19 O28          1.6310     2.4860     4.0780 o          1 8NH      -0.479000
     20 O29          4.5130     2.3110     0.5570 o          1 8NH      -0.513000
     21 C30          5.5700     1.1600     3.4810 c3         1 8NH      -0.053800
     22 H5           3.2040     5.1760     3.0750 ha         1 8NH       0.133000
     23 H7           4.8990     6.4510     4.3490 ha         1 8NH       0.134000
     24 H15          0.3930     2.1140     1.6060 h1         1 8NH       0.109700
     25 H17          0.2090    -0.1540     2.4380 h1         1 8NH       0.069700
     26 H191         0.1320    -0.0480     0.0320 hc         1 8NH       0.065700
     27 H192         1.2930    -1.3460     0.2840 hc         1 8NH       0.065700
     28 H221         3.1560     0.0930    -0.2670 h1         1 8NH       0.068700
     29 H222         1.9110     0.9240    -1.2030 h1         1 8NH       0.068700
     30 HO25         2.2820    -1.3620     2.5120 ho         1 8NH       0.457000
     31 H301         5.9000     0.6730     4.3980 hc         1 8NH       0.059367
     32 H302         4.6490     0.6750     3.1700 hc         1 8NH       0.059367
     33 H303         6.3260     0.9680     2.7190 hc         1 8NH       0.059367
@<TRIPOS>BOND
     1     1     2 1   
     2     2     3 ar  
     3     2     7 ar  
     4     3     4 ar  
     5     3    21 1   
     6     4     5 ar  
     7     4    10 1   
     8     5     6 ar  
     9     5    22 1   
    10     6     7 ar  
    11     6    23 1   
    12     7     8 1   
    13     8     9 3   
    14    10    11 1   
    15    10    18 1   
    16    11    12 1   
    17    11    20 2   
    18    12    13 1   
    19    12    16 1   
    20    13    14 1   
    21    13    18 1   
    22    13    24 1   
    23    14    15 1   
    24    14    17 1   
    25    14    25 1   
    26    15    16 1   
    27    15    26 1   
    28    15    27 1   
    29    16    28 1   
    30    16    29 1   
    31    17    30 1   
    32    18    19 2   
    33    21    31 1   
    34    21    32 1   
    35    21    33 1   
@<TRIPOS>SUBSTRUCTURE
     1 8NH         1 TEMP              0 ****  ****    0 ROOT
