@<TRIPOS>MOLECULE
8NH
   33    35     1     0     0
SMALL
No Charge or Current Charge


@<TRIPOS>ATOM
      1 Cl1          7.9410     2.6400     4.8610 cl         1 8NH      -0.169000
      2 C2           6.4280     3.4220     4.3610 ca         1 8NH       0.142000
      3 C3           5.4610     2.6880     3.6280 ca         1 8NH      -0.039300
      4 C4           4.2720     3.3410     3.2100 ca         1 8NH      -0.009000
      5 C5           4.0490     4.6860     3.5550 ca         1 8NH      -0.096000
      6 C7           5.0040     5.4000     4.2920 ca         1 8NH      -0.067000
      7 C9           6.1980     4.7760     4.6920 ca         1 8NH      -0.001000
      8 C10          7.1660     5.5340     5.4380 cg         1 8NH       0.325000
      9 N11          7.9440     6.1610     6.0430 n1         1 8NH      -0.436000
     10 N12          3.2700     2.6700     2.4310 n          1 8NH      -0.228000
     11 C13          3.4720     2.2540     1.1180 c          1 8NH       0.612000
     12 N14          2.2960     1.6700     0.6700 n          1 8NH      -0.373800
     13 C15          1.2960     1.6530     1.7470 c5         1 8NH      -0.014300
     14 C17          1.0530     0.1280     1.9310 c5         1 8NH       0.163300
     15 C19          1.0560    -0.3040     0.4340 c5         1 8NH      -0.143400
     16 C22          2.2960     0.4420    -0.1450 c5         1 8NH       0.100000
     17 O25          2.0970    -0.5210     2.6620 oh         1 8NH      -0.659000
     18 C27          2.0090     2.3300     2.9420 c          1 8NH       0.590000
     19 O28          1.5920     2.5780     4.0670 o          1 8NH      -0.479000
     20 O29          4.5090     2.3430     0.4770 o          1 8NH      -0.513000
     21 C30          5.7070     1.2070     3.3110 c3         1 8NH      -0.053800
     22 H5           3.1350     5.1840     3.2410 ha         1 8NH       0.133000
     23 H7           4.8160     6.4420     4.5450 ha         1 8NH       0.134000
     24 H15          0.3910     2.2150     1.4820 h1         1 8NH       0.109700
     25 H17          0.0810    -0.0630     2.4080 h1         1 8NH       0.069700
     26 H191         0.1370     0.0260    -0.0650 hc         1 8NH       0.065700
     27 H192         1.1200    -1.3900     0.2990 hc         1 8NH       0.065700
     28 H221         3.2200    -0.1330     0.0100 h1         1 8NH       0.068700
     29 H222         2.1930     0.6550    -1.2180 h1         1 8NH       0.068700
     30 HO25         1.8690    -1.4770     2.6990 ho         1 8NH       0.457000
     31 H301         6.1080     0.6710     4.1780 hc         1 8NH       0.059367
     32 H302         4.7930     0.6740     3.0290 hc         1 8NH       0.059367
     33 H303         6.4220     1.0980     2.4870 hc         1 8NH       0.059367
@<TRIPOS>BOND
     1     1     2 1   
     2     2     3 ar  
     3     2     7 ar  
     4     3     4 ar  
     5     3    21 1   
     6     4     5 ar  
     7     4    10 1   
     8     5     6 ar  
     9     5    22 1   
    10     6     7 ar  
    11     6    23 1   
    12     7     8 1   
    13     8     9 3   
    14    10    11 1   
    15    10    18 1   
    16    11    12 1   
    17    11    20 2   
    18    12    13 1   
    19    12    16 1   
    20    13    14 1   
    21    13    18 1   
    22    13    24 1   
    23    14    15 1   
    24    14    17 1   
    25    14    25 1   
    26    15    16 1   
    27    15    26 1   
    28    15    27 1   
    29    16    28 1   
    30    16    29 1   
    31    17    30 1   
    32    18    19 2   
    33    21    31 1   
    34    21    32 1   
    35    21    33 1   
@<TRIPOS>SUBSTRUCTURE
     1 8NH         1 TEMP              0 ****  ****    0 ROOT
