@<TRIPOS>MOLECULE
8NJ
   40    43     1     0     0
SMALL
abcg2


@<TRIPOS>ATOM
      1 C4          -3.7870     2.6050     0.9280 ca         1 8NJ      -0.079000
      2 C5          -2.1240    -3.6330    -0.6330 ca         1 8NJ      -0.101000
      3 C6           0.1030    -2.8180    -1.0070 ca         1 8NJ      -0.092000
      4 C7          -2.9820     0.6370    -0.8620 ca         1 8NJ      -0.166000
      5 C8          -2.9740     1.5710     1.3640 ca         1 8NJ      -0.166000
      6 C10          2.7380    -2.0790     0.9230 cc         1 8NJ      -0.186000
      7 C13          2.1390    -0.9090     0.3920 cc         1 8NJ      -0.033800
      8 C15         -1.4620    -1.4860     0.2110 ca         1 8NJ       0.102100
      9 C17          0.6710     0.6830    -0.5560 cd         1 8NJ      -0.047400
     10 C20          1.2350     3.0050    -0.8780 c3         1 8NJ       0.072300
     11 C1          -4.2060     2.6670    -0.3960 ca         1 8NJ      -0.145000
     12 C2          -0.8530    -3.8080    -1.1660 ca         1 8NJ      -0.114000
     13 C3          -3.7990     1.6810    -1.2810 ca         1 8NJ      -0.079000
     14 C9          -2.4270    -2.4720     0.0600 ca         1 8NJ      -0.127000
     15 C11          4.0050    -1.7220     1.3220 cd         1 8NJ      -0.155000
     16 C12         -0.1830    -1.6310    -0.3290 ca         1 8NJ      -0.022800
     17 C14         -2.5730     0.5860     0.4660 ca         1 8NJ       0.134100
     18 C16          3.0800     0.1090     0.4980 cd         1 8NJ      -0.257600
     19 C18          0.8600    -0.6010    -0.1680 cc         1 8NJ      -0.060400
     20 C19          2.8780     1.4640     0.0940 c          1 8NJ       0.591600
     21 N21          4.2040    -0.4080     1.0650 na         1 8NJ      -0.076000
     22 N22          1.6160     1.6710    -0.4330 n          1 8NJ      -0.276000
     23 O23          3.7170     2.3580     0.1930 o          1 8NJ      -0.579000
     24 O24         -1.7480    -0.3770     0.9640 os         1 8NJ      -0.249200
     25 H1          -4.0960     3.3660     1.6330 ha         1 8NJ       0.113500
     26 H2          -2.8790    -4.3990    -0.7510 ha         1 8NJ       0.117000
     27 H3           1.0900    -2.9550    -1.4300 ha         1 8NJ       0.124000
     28 H4          -2.6740    -0.1170    -1.5740 ha         1 8NJ       0.128500
     29 H5          -2.6450     1.5240     2.3940 ha         1 8NJ       0.128500
     30 H6           2.3040    -3.0620     1.0050 ha         1 8NJ       0.142000
     31 H7          -0.2510     1.0090    -1.0170 h4         1 8NJ       0.204000
     32 H8           2.0710     3.6830    -0.7610 h1         1 8NJ       0.055367
     33 H9           0.9430     2.9810    -1.9270 h1         1 8NJ       0.055367
     34 H10          0.3990     3.3730    -0.2850 h1         1 8NJ       0.055367
     35 H11         -4.8410     3.4760    -0.7310 ha         1 8NJ       0.116000
     36 H12         -0.6070    -4.7120    -1.7060 ha         1 8NJ       0.117000
     37 H13         -4.1140     1.7160    -2.3160 ha         1 8NJ       0.113500
     38 H14         -3.4090    -2.3350     0.4950 ha         1 8NJ       0.128000
     39 H15          4.7810    -2.3200     1.7720 h4         1 8NJ       0.147000
     40 H16          5.0460     0.1060     1.2660 hn         1 8NJ       0.365000
@<TRIPOS>BOND
     1     1     5 ar  
     2     1    11 ar  
     3     1    25 1   
     4     2    12 ar  
     5     2    14 ar  
     6     2    26 1   
     7     3    12 ar  
     8     3    16 ar  
     9     3    27 1   
    10     4    13 ar  
    11     4    17 ar  
    12     4    28 1   
    13     5    17 ar  
    14     5    29 1   
    15     6     7 1   
    16     6    15 2   
    17     6    30 1   
    18     7    18 2   
    19     7    19 1   
    20     8    14 ar  
    21     8    16 ar  
    22     8    24 1   
    23     9    19 2   
    24     9    22 1   
    25     9    31 1   
    26    10    22 1   
    27    10    32 1   
    28    10    33 1   
    29    10    34 1   
    30    11    13 ar  
    31    11    35 1   
    32    12    36 1   
    33    13    37 1   
    34    14    38 1   
    35    15    21 1   
    36    15    39 1   
    37    16    19 1   
    38    17    24 1   
    39    18    20 1   
    40    18    21 1   
    41    20    22 1   
    42    20    23 2   
    43    21    40 1   
@<TRIPOS>SUBSTRUCTURE
     1 8NJ         1 TEMP              0 ****  ****    0 ROOT
