@<TRIPOS>MOLECULE
8NJ
   40    43     1     0     0
SMALL
No Charge or Current Charge


@<TRIPOS>ATOM
      1 C4          -4.4280     2.4630     0.9150 ca         1 8NJ      -0.079000
      2 C5          -2.1640    -3.4260    -0.5580 ca         1 8NJ      -0.101000
      3 C6           0.1950    -2.8430    -0.6790 ca         1 8NJ      -0.092000
      4 C7          -3.1740     0.8110    -0.9860 ca         1 8NJ      -0.166000
      5 C8          -3.3730     1.6180     1.3030 ca         1 8NJ      -0.166000
      6 C10          2.9360    -2.1840     0.8350 cc         1 8NJ      -0.186000
      7 C13          2.4070    -0.9560     0.3940 cc         1 8NJ      -0.033800
      8 C15         -1.4080    -1.2220     0.1700 ca         1 8NJ       0.102100
      9 C17          0.8360     0.6990    -0.3700 cd         1 8NJ      -0.047400
     10 C20          1.5280     3.0670    -0.7700 c3         1 8NJ       0.072300
     11 C1          -4.8560     2.4780    -0.4240 ca         1 8NJ      -0.145000
     12 C2          -0.8440    -3.7660    -0.8850 ca         1 8NJ      -0.114000
     13 C3          -4.2290     1.6550    -1.3750 ca         1 8NJ      -0.079000
     14 C9          -2.4430    -2.1590    -0.0270 ca         1 8NJ      -0.127000
     15 C11          4.2740    -2.0240     1.0870 cd         1 8NJ      -0.155000
     16 C12         -0.0630    -1.5590    -0.1470 ca         1 8NJ      -0.022800
     17 C14         -2.7520     0.7840     0.3590 ca         1 8NJ       0.134100
     18 C16          3.3970    -0.0260     0.3910 cd         1 8NJ      -0.257600
     19 C18          1.0560    -0.6120     0.0380 cc         1 8NJ      -0.060400
     20 C19          3.1780     1.3840     0.0130 c          1 8NJ       0.591600
     21 N21          4.5670    -0.6790     0.8070 na         1 8NJ      -0.076000
     22 N22          1.8420     1.6800    -0.3600 n          1 8NJ      -0.276000
     23 O23          4.0760     2.2190     0.0200 o          1 8NJ      -0.579000
     24 O24         -1.7080    -0.0160     0.7670 os         1 8NJ      -0.249200
     25 H1          -4.9110     3.1040     1.6490 ha         1 8NJ       0.113500
     26 H2          -2.9670    -4.1440    -0.7110 ha         1 8NJ       0.117000
     27 H3           1.2020    -3.1190    -0.9760 ha         1 8NJ       0.124000
     28 H4          -2.6870     0.1860    -1.7310 ha         1 8NJ       0.128500
     29 H5          -3.0370     1.6070     2.3370 ha         1 8NJ       0.128500
     30 H6           2.3700    -3.0990     0.9780 ha         1 8NJ       0.142000
     31 H7          -0.1100     1.0630    -0.7540 h4         1 8NJ       0.204000
     32 H8           1.8310     3.7650     0.0210 h1         1 8NJ       0.055367
     33 H9           2.0710     3.3100    -1.6920 h1         1 8NJ       0.055367
     34 H10          0.4520     3.1860    -0.9490 h1         1 8NJ       0.055367
     35 H11         -5.6720     3.1320    -0.7260 ha         1 8NJ       0.116000
     36 H12         -0.6230    -4.7450    -1.3050 ha         1 8NJ       0.117000
     37 H13         -4.5570     1.6740    -2.4130 ha         1 8NJ       0.113500
     38 H14         -3.4650    -1.9060     0.2460 ha         1 8NJ       0.128000
     39 H15          5.0170    -2.7290     1.4440 h4         1 8NJ       0.147000
     40 H16          5.4800    -0.2420     0.9030 hn         1 8NJ       0.365000
@<TRIPOS>BOND
     1     1     5 ar  
     2     1    11 ar  
     3     1    25 1   
     4     2    12 ar  
     5     2    14 ar  
     6     2    26 1   
     7     3    12 ar  
     8     3    16 ar  
     9     3    27 1   
    10     4    13 ar  
    11     4    17 ar  
    12     4    28 1   
    13     5    17 ar  
    14     5    29 1   
    15     6     7 1   
    16     6    15 2   
    17     6    30 1   
    18     7    18 2   
    19     7    19 1   
    20     8    14 ar  
    21     8    16 ar  
    22     8    24 1   
    23     9    19 2   
    24     9    22 1   
    25     9    31 1   
    26    10    22 1   
    27    10    32 1   
    28    10    33 1   
    29    10    34 1   
    30    11    13 ar  
    31    11    35 1   
    32    12    36 1   
    33    13    37 1   
    34    14    38 1   
    35    15    21 1   
    36    15    39 1   
    37    16    19 1   
    38    17    24 1   
    39    18    20 1   
    40    18    21 1   
    41    20    22 1   
    42    20    23 2   
    43    21    40 1   
@<TRIPOS>SUBSTRUCTURE
     1 8NJ         1 TEMP              0 ****  ****    0 ROOT
