@<TRIPOS>MOLECULE
8NL
   51    53     1     0     0
SMALL
abcg2


@<TRIPOS>ATOM
      1 C           11.1240    40.3300     6.7910 c3         1 8NL      -0.051800
      2 C8          10.0420    38.0040     9.9080 ca         1 8NL      -0.098500
      3 C9          10.8930    37.1680    10.6220 ca         1 8NL      -0.112500
      4 C10         12.1820    37.5880    10.9380 ca         1 8NL      -0.107000
      5 C11         12.6100    38.8500    10.5360 ca         1 8NL      -0.112500
      6 C12         11.7590    39.6820     9.8190 ca         1 8NL      -0.098500
      7 O           10.3130    43.0630     5.6440 os         1 8NL      -0.445100
      8 CL          16.9180    44.2670     3.2870 cl         1 8NL      -0.150000
      9 C21         15.2210    44.3180     2.8960 c2         1 8NL      -0.041200
     10 C22         14.8610    43.8740     1.4960 c3         1 8NL       0.344200
     11 F2          14.0480    42.7910     1.5100 f          1 8NL      -0.103333
     12 F1          14.1930    44.8400     0.8220 f          1 8NL      -0.103333
     13 F           15.9270    43.5480     0.7520 f          1 8NL      -0.103333
     14 C16         12.8750    44.7910     3.5920 cx         1 8NL      -0.087500
     15 C17         12.0220    45.8730     4.2210 cx         1 8NL      -0.041000
     16 C18         10.8930    46.4240     3.3800 c3         1 8NL      -0.073100
     17 C19         12.6490    46.9050     5.1320 c3         1 8NL      -0.073100
     18 C15         11.9510    44.4530     4.7580 cx         1 8NL      -0.190700
     19 C14         10.7930    43.5680     4.4980 c          1 8NL       0.624100
     20 O1          10.3220    43.3160     3.4090 o          1 8NL      -0.487000
     21 C2           8.9150    41.5600     6.8810 ca         1 8NL      -0.102300
     22 C3           7.7130    41.8710     7.5120 ca         1 8NL      -0.086000
     23 C4           7.4010    41.3250     8.7500 ca         1 8NL      -0.119000
     24 C5           8.3100    40.4790     9.3650 ca         1 8NL      -0.086000
     25 C6           9.5320    40.1670     8.7610 cp         1 8NL      -0.044000
     26 C1           9.8410    40.6960     7.4940 ca         1 8NL      -0.028300
     27 C7          10.4640    39.2700     9.4930 cp         1 8NL      -0.039000
     28 H1          11.9160    41.0510     7.0060 hc         1 8NL       0.048367
     29 H2          11.4790    39.3520     7.1090 hc         1 8NL       0.048367
     30 H3          10.9940    40.3110     5.7100 hc         1 8NL       0.048367
     31 H4           9.0410    37.6710     9.6620 ha         1 8NL       0.115500
     32 H5          10.5500    36.1880    10.9300 ha         1 8NL       0.113500
     33 H6          12.8460    36.9380    11.4940 ha         1 8NL       0.113000
     34 H7          13.6080    39.1890    10.7850 ha         1 8NL       0.113500
     35 H8          12.0980    40.6650     9.5180 ha         1 8NL       0.115500
     36 H9           8.3240    42.7150     5.1730 h1         1 8NL       0.058700
     37 H10          9.4330    41.3940     4.7890 h1         1 8NL       0.058700
     38 H13         10.0980    46.8110     4.0230 hc         1 8NL       0.048867
     39 H14         11.2640    47.2520     2.7720 hc         1 8NL       0.048867
     40 H15         10.4670    45.6730     2.7190 hc         1 8NL       0.048867
     41 H16         13.4110    46.4840     5.7880 hc         1 8NL       0.048867
     42 H17         13.1050    47.7020     4.5400 hc         1 8NL       0.048867
     43 H18         11.8780    47.3520     5.7620 hc         1 8NL       0.048867
     44 H19         12.4120    44.3060     5.7250 hc         1 8NL       0.107700
     45 H20          7.0160    42.5400     7.0220 ha         1 8NL       0.114000
     46 H21          6.4620    41.5640     9.2330 ha         1 8NL       0.118000
     47 H22          8.0850    40.0590    10.3370 ha         1 8NL       0.117000
     48 H11         14.7000    44.9970     4.7700 ha         1 8NL       0.196000
     49 H12         12.4990    44.4440     2.6410 hc         1 8NL       0.117700
     50 C13          9.1840    42.1510     5.5320 c3         1 8NL       0.213900
     51 C20         14.3220    44.7140     3.7960 c2         1 8NL      -0.096200
@<TRIPOS>BOND
     1     1    26 1   
     2     1    28 1   
     3     1    29 1   
     4     1    30 1   
     5     2     3 ar  
     6     2    27 ar  
     7     2    31 1   
     8     3     4 ar  
     9     3    32 1   
    10     4     5 ar  
    11     4    33 1   
    12     5     6 ar  
    13     5    34 1   
    14     6    27 ar  
    15     6    35 1   
    16     7    19 1   
    17     7    50 1   
    18     8     9 1   
    19     9    10 1   
    20     9    51 2   
    21    10    11 1   
    22    10    12 1   
    23    10    13 1   
    24    14    15 1   
    25    14    18 1   
    26    14    49 1   
    27    14    51 1   
    28    15    16 1   
    29    15    17 1   
    30    15    18 1   
    31    16    38 1   
    32    16    39 1   
    33    16    40 1   
    34    17    41 1   
    35    17    42 1   
    36    17    43 1   
    37    18    19 1   
    38    18    44 1   
    39    19    20 2   
    40    21    22 ar  
    41    21    26 ar  
    42    21    50 1   
    43    22    23 ar  
    44    22    45 1   
    45    23    24 ar  
    46    23    46 1   
    47    24    25 ar  
    48    24    47 1   
    49    25    26 ar  
    50    25    27 1   
    51    36    50 1   
    52    37    50 1   
    53    48    51 1   
@<TRIPOS>SUBSTRUCTURE
     1 8NL         1 TEMP              0 ****  ****    0 ROOT
