@<TRIPOS>MOLECULE
8NL
   51    53     1     0     0
SMALL
No Charge or Current Charge


@<TRIPOS>ATOM
      1 C           11.3080    39.7720     7.1340 c3         1 8NL      -0.051800
      2 C8           9.4250    38.6950    10.6160 ca         1 8NL      -0.098500
      3 C9          10.0630    38.1260    11.7320 ca         1 8NL      -0.112500
      4 C10         11.3260    38.5930    12.1330 ca         1 8NL      -0.107000
      5 C11         11.9470    39.6320    11.4200 ca         1 8NL      -0.112500
      6 C12         11.3080    40.2000    10.3040 ca         1 8NL      -0.098500
      7 O           10.9500    42.0580     4.9890 os         1 8NL      -0.445100
      8 Cl          16.6010    45.9930     1.6750 cl         1 8NL      -0.150000
      9 C21         14.8950    45.7760     2.0120 c2         1 8NL      -0.041200
     10 C22         13.9870    46.9210     1.5510 c3         1 8NL       0.344200
     11 F2          13.0840    46.4960     0.6380 f          1 8NL      -0.103333
     12 F1          13.2920    47.4520     2.5830 f          1 8NL      -0.103333
     13 F           14.6730    47.9380     0.9790 f          1 8NL      -0.103333
     14 C16         13.0650    44.3240     2.9880 cx         1 8NL      -0.087500
     15 C17         12.4920    44.7300     4.3320 cx         1 8NL      -0.041000
     16 C18         11.0580    45.2610     4.3830 c3         1 8NL      -0.073100
     17 C19         13.3640    45.4340     5.3720 c3         1 8NL      -0.073100
     18 C15         12.7710    43.2660     4.0360 cx         1 8NL      -0.190700
     19 C14         11.6170    42.3170     3.8240 c          1 8NL       0.624100
     20 O1          11.3270    41.8360     2.7370 o          1 8NL      -0.487000
     21 C2           9.2330    41.0430     6.3400 ca         1 8NL      -0.102300
     22 C3           7.9560    41.5910     6.5760 ca         1 8NL      -0.086000
     23 C4           7.3670    41.5100     7.8440 ca         1 8NL      -0.119000
     24 C5           8.0570    40.8940     8.8940 ca         1 8NL      -0.086000
     25 C6           9.3460    40.3450     8.7010 cp         1 8NL      -0.044000
     26 C1           9.9340    40.4020     7.4000 ca         1 8NL      -0.028300
     27 C7          10.0400    39.7340     9.8760 cp         1 8NL      -0.039000
     28 H1          12.1010    40.5270     7.1860 hc         1 8NL       0.048367
     29 H2          11.5490    38.9830     7.8550 hc         1 8NL       0.048367
     30 H3          11.3630    39.2960     6.1490 hc         1 8NL       0.048367
     31 H4           8.4470    38.3260    10.3130 ha         1 8NL       0.115500
     32 H5           9.5780    37.3250    12.2850 ha         1 8NL       0.113500
     33 H6          11.8200    38.1530    12.9960 ha         1 8NL       0.113000
     34 H7          12.9220    39.9990    11.7330 ha         1 8NL       0.113500
     35 H8          11.7930    41.0110     9.7670 ha         1 8NL       0.115500
     36 H9           9.0590    41.5680     4.2490 h1         1 8NL       0.058700
     37 H10         10.1110    40.1820     4.5570 h1         1 8NL       0.058700
     38 H13         10.5910    45.0380     5.3500 hc         1 8NL       0.048867
     39 H14         11.0380    46.3490     4.2430 hc         1 8NL       0.048867
     40 H15         10.4290    44.8210     3.6000 hc         1 8NL       0.048867
     41 H16         14.3900    45.0480     5.3750 hc         1 8NL       0.048867
     42 H17         13.4170    46.5120     5.1790 hc         1 8NL       0.048867
     43 H18         12.9590    45.2940     6.3820 hc         1 8NL       0.048867
     44 H19         13.6220    42.8160     4.5400 hc         1 8NL       0.107700
     45 H20          7.4140    42.0830     5.7720 ha         1 8NL       0.114000
     46 H21          6.3800    41.9340     8.0150 ha         1 8NL       0.118000
     47 H22          7.5970    40.8520     9.8790 ha         1 8NL       0.117000
     48 H11         15.2130    43.9010     2.9080 ha         1 8NL       0.196000
     49 H12         12.3880    44.3570     2.1360 hc         1 8NL       0.117700
     50 C13          9.8210    41.1710     4.9340 c3         1 8NL       0.213900
     51 C20         14.4770    44.6570     2.6310 c2         1 8NL      -0.096200
@<TRIPOS>BOND
     1     1    26 1   
     2     1    28 1   
     3     1    29 1   
     4     1    30 1   
     5     2     3 ar  
     6     2    27 ar  
     7     2    31 1   
     8     3     4 ar  
     9     3    32 1   
    10     4     5 ar  
    11     4    33 1   
    12     5     6 ar  
    13     5    34 1   
    14     6    27 ar  
    15     6    35 1   
    16     7    19 1   
    17     7    50 1   
    18     8     9 1   
    19     9    10 1   
    20     9    51 2   
    21    10    11 1   
    22    10    12 1   
    23    10    13 1   
    24    14    15 1   
    25    14    18 1   
    26    14    49 1   
    27    14    51 1   
    28    15    16 1   
    29    15    17 1   
    30    15    18 1   
    31    16    38 1   
    32    16    39 1   
    33    16    40 1   
    34    17    41 1   
    35    17    42 1   
    36    17    43 1   
    37    18    19 1   
    38    18    44 1   
    39    19    20 2   
    40    21    22 ar  
    41    21    26 ar  
    42    21    50 1   
    43    22    23 ar  
    44    22    45 1   
    45    23    24 ar  
    46    23    46 1   
    47    24    25 ar  
    48    24    47 1   
    49    25    26 ar  
    50    25    27 1   
    51    36    50 1   
    52    37    50 1   
    53    48    51 1   
@<TRIPOS>SUBSTRUCTURE
     1 8NL         1 TEMP              0 ****  ****    0 ROOT
