@<TRIPOS>MOLECULE
8NM
   48    51     1     0     0
SMALL
No Charge or Current Charge


@<TRIPOS>ATOM
      1 C4           2.6180    -0.2140     0.6870 ca         1 8NM      -0.068000
      2 C5          -0.9160    -4.4350     0.5310 ca         1 8NM      -0.159500
      3 C6           0.1850    -3.2640    -1.2980 ca         1 8NM      -0.159500
      4 C7           1.6950    -1.2710     0.7070 ca         1 8NM      -0.123000
      5 C8          -1.7660     2.7980     1.7180 cc         1 8NM      -0.189000
      6 C10         -2.7630     3.7110     1.9450 cd         1 8NM      -0.152000
      7 C13          2.1720     1.1130     0.5440 ca         1 8NM       0.224000
      8 C15          0.3160    -1.0180     0.5800 ca         1 8NM       0.112100
      9 C17         -2.3320    -0.1590    -0.5420 cd         1 8NM      -0.036400
     10 C20         -4.4160    -0.8140    -1.7550 c3         1 8NM       0.082300
     11 C21          4.7570     1.5480    -1.5130 c3         1 8NM      -0.383100
     12 C1          -0.1850    -5.6660    -1.4370 ca         1 8NM      -0.138000
     13 C2          -0.7980    -5.6470    -0.1710 ca         1 8NM      -0.079500
     14 C3           0.3040    -4.4750    -2.0010 ca         1 8NM      -0.079500
     15 C9           0.7920     1.3620     0.4410 ca         1 8NM      -0.122000
     16 C11         -2.2470     1.8110     0.8360 cc         1 8NM      -0.035800
     17 C12         -0.1570     0.3150     0.4570 ca         1 8NM      -0.011800
     18 C14         -0.4170    -3.2450    -0.0230 ca         1 8NM       0.127100
     19 C16         -3.5420     2.0860     0.5300 cd         1 8NM      -0.254600
     20 C18         -1.5930     0.6360     0.3260 cc         1 8NM      -0.069400
     21 C19         -4.3640     1.2290    -0.3470 c          1 8NM       0.586600
     22 N22         -3.8730     3.2720     1.2020 na         1 8NM      -0.075000
     23 N23         -3.6780     0.0980    -0.8530 n          1 8NM      -0.276000
     24 N24          3.0420     2.2060     0.5080 nu         1 8NM      -0.867100
     25 O25         -5.5340     1.4820    -0.6110 o          1 8NM      -0.571000
     26 O26          5.3650     1.4350     1.0720 o          1 8NM      -0.524500
     27 O27          4.9540     3.7060     0.0040 o          1 8NM      -0.524500
     28 O28         -0.5660    -2.0720     0.6830 os         1 8NM      -0.246200
     29 S29          4.6540     2.2780     0.1090 s6         1 8NM       1.187100
     30 H4           3.6730    -0.4410     0.7940 ha         1 8NM       0.149000
     31 H6           0.5560    -2.3460    -1.7470 ha         1 8NM       0.127000
     32 H7           2.0510    -2.2900     0.8380 ha         1 8NM       0.138000
     33 H8          -0.7770     2.8160     2.1640 ha         1 8NM       0.141000
     34 H10         -2.7810     4.6010     2.5640 h4         1 8NM       0.150000
     35 H17         -1.9290    -1.0170    -1.0700 h4         1 8NM       0.202000
     36 H202        -5.3350    -1.1580    -1.2630 h1         1 8NM       0.053033
     37 H203        -4.6810    -0.2840    -2.6790 h1         1 8NM       0.053033
     38 H201        -3.8060    -1.6890    -2.0100 h1         1 8NM       0.053033
     39 H1          -0.0940    -6.6030    -1.9820 ha         1 8NM       0.118000
     40 H2          -1.1810    -6.5690     0.2620 ha         1 8NM       0.115500
     41 H3           0.7720    -4.4910    -2.9840 ha         1 8NM       0.115500
     42 H9           0.4580     2.3840     0.3010 ha         1 8NM       0.123000
     43 H22         -4.7780     3.7340     1.1670 hn         1 8NM       0.366000
     44 H11          4.1110     2.1290    -2.1780 h1         1 8NM       0.103033
     45 H12          5.8040     1.6020    -1.8290 h1         1 8NM       0.103033
     46 H13          4.4200     0.5110    -1.4370 h1         1 8NM       0.103033
     47 H14          2.6620     3.1190     0.2950 hn         1 8NM       0.488000
     48 H5          -1.3930    -4.4170     1.5090 ha         1 8NM       0.127000
@<TRIPOS>BOND
     1     1     4 ar  
     2     1     7 ar  
     3     1    30 1   
     4     2    13 ar  
     5     2    18 ar  
     6     2    48 1   
     7     3    14 ar  
     8     3    18 ar  
     9     3    31 1   
    10     4     8 ar  
    11     4    32 1   
    12     5     6 2   
    13     5    16 1   
    14     5    33 1   
    15     6    22 1   
    16     6    34 1   
    17     7    15 ar  
    18     7    24 1   
    19     8    17 ar  
    20     8    28 1   
    21     9    20 2   
    22     9    23 1   
    23     9    35 1   
    24    10    23 1   
    25    10    36 1   
    26    10    37 1   
    27    10    38 1   
    28    11    29 1   
    29    11    44 1   
    30    11    45 1   
    31    11    46 1   
    32    12    13 ar  
    33    12    14 ar  
    34    12    39 1   
    35    13    40 1   
    36    14    41 1   
    37    15    17 ar  
    38    15    42 1   
    39    16    19 2   
    40    16    20 1   
    41    17    20 1   
    42    18    28 1   
    43    19    21 1   
    44    19    22 1   
    45    21    23 1   
    46    21    25 2   
    47    22    43 1   
    48    24    29 1   
    49    24    47 1   
    50    26    29 2   
    51    27    29 2   
@<TRIPOS>SUBSTRUCTURE
     1 8NM         1 TEMP              0 ****  ****    0 ROOT
