@<TRIPOS>MOLECULE
8NM
   48    51     1     0     0
SMALL
bcc


@<TRIPOS>ATOM
      1 C4           2.7400    -0.3220     1.2500 ca         1 8NM      -0.086000
      2 C5          -1.1740    -4.2300     0.7300 ca         1 8NM      -0.177500
      3 C6           0.2760    -3.2070    -0.9060 ca         1 8NM      -0.177500
      4 C7           1.7870    -1.3210     1.2910 ca         1 8NM      -0.141000
      5 C8          -1.7220     2.4890     1.8490 cc         1 8NM      -0.207000
      6 C10         -2.8500     3.2540     2.0380 cd         1 8NM      -0.119300
      7 C13          2.3800     0.9550     0.8270 ca         1 8NM       0.085600
      8 C15          0.4730    -1.0530     0.9290 ca         1 8NM       0.112100
      9 C17         -1.9610    -0.1250    -0.8380 cd         1 8NM       0.013600
     10 C20         -3.8720    -0.6190    -2.2750 c3         1 8NM       0.082300
     11 C21          3.6500     2.2190    -1.9240 c3         1 8NM      -0.272300
     12 C1          -0.4920    -5.4760    -1.2190 ca         1 8NM      -0.156000
     13 C2          -1.2020    -5.3910    -0.0270 ca         1 8NM      -0.097500
     14 C3           0.2410    -4.3800    -1.6510 ca         1 8NM      -0.097500
     15 C9           1.0670     1.2130     0.4630 ca         1 8NM      -0.140000
     16 C11         -2.0190     1.5870     0.7970 cc         1 8NM      -0.035800
     17 C12          0.0900     0.2180     0.5060 ca         1 8NM      -0.011800
     18 C14         -0.4320    -3.1400     0.2880 ca         1 8NM       0.127100
     19 C16         -3.3240     1.8500     0.3980 cd         1 8NM      -0.203900
     20 C18         -1.3010     0.5400     0.1410 cc         1 8NM      -0.069400
     21 C19         -4.0200     1.1470    -0.6300 c          1 8NM       0.729100
     22 N22         -3.8080     2.8650     1.1640 na         1 8NM      -0.126100
     23 N23         -3.2520     0.1530    -1.2090 n          1 8NM      -0.343000
     24 N24          3.3460     1.9920     0.8020 nu         1 8NM      -0.673500
     25 O25         -5.1740     1.3670    -0.9930 o          1 8NM      -0.646500
     26 O26          5.1220     0.6750    -0.3970 o          1 8NM      -0.595300
     27 O27          5.3320     3.1660    -0.1320 o          1 8NM      -0.595300
     28 O28         -0.4830    -2.0210     1.0650 os         1 8NM      -0.246200
     29 S29          4.5140     1.9940    -0.3870 s6         1 8NM       1.217900
     30 H4           3.7510    -0.5300     1.5680 ha         1 8NM       0.167000
     31 H6           0.8550    -2.3660    -1.2650 ha         1 8NM       0.145000
     32 H7           2.0610    -2.3110     1.6360 ha         1 8NM       0.156000
     33 H8          -0.8020     2.5720     2.4050 ha         1 8NM       0.159000
     34 H10         -3.0320     4.0510     2.7400 h4         1 8NM       0.168000
     35 H17         -1.4880    -0.9120    -1.4070 h4         1 8NM       0.152000
     36 H202        -4.7770    -1.1080    -1.9210 h1         1 8NM       0.053033
     37 H203        -4.1260     0.0180    -3.1200 h1         1 8NM       0.053033
     38 H201        -3.1770    -1.3820    -2.6140 h1         1 8NM       0.053033
     39 H1          -0.5110    -6.3850    -1.8040 ha         1 8NM       0.136000
     40 H2          -1.7810    -6.2360     0.3230 ha         1 8NM       0.133500
     41 H3           0.7950    -4.4290    -2.5790 ha         1 8NM       0.133500
     42 H9           0.7910     2.2060     0.1260 ha         1 8NM       0.141000
     43 H22         -4.7310     3.2610     1.0950 hn         1 8NM       0.315700
     44 H11          3.1520     3.1860    -1.9130 h1         1 8NM       0.103033
     45 H12          4.3830     2.1850    -2.7280 h1         1 8NM       0.103033
     46 H13          2.9230     1.4200    -2.0540 h1         1 8NM       0.103033
     47 H14          2.9660     2.9220     0.9460 hn         1 8NM       0.432800
     48 H5          -1.7250    -4.1640     1.6600 ha         1 8NM       0.145000
@<TRIPOS>BOND
     1     1     4 ar  
     2     1     7 ar  
     3     1    30 1   
     4     2    13 ar  
     5     2    18 ar  
     6     2    48 1   
     7     3    14 ar  
     8     3    18 ar  
     9     3    31 1   
    10     4     8 ar  
    11     4    32 1   
    12     5     6 2   
    13     5    16 1   
    14     5    33 1   
    15     6    22 1   
    16     6    34 1   
    17     7    15 ar  
    18     7    24 1   
    19     8    17 ar  
    20     8    28 1   
    21     9    20 2   
    22     9    23 1   
    23     9    35 1   
    24    10    23 1   
    25    10    36 1   
    26    10    37 1   
    27    10    38 1   
    28    11    29 1   
    29    11    44 1   
    30    11    45 1   
    31    11    46 1   
    32    12    13 ar  
    33    12    14 ar  
    34    12    39 1   
    35    13    40 1   
    36    14    41 1   
    37    15    17 ar  
    38    15    42 1   
    39    16    19 2   
    40    16    20 1   
    41    17    20 1   
    42    18    28 1   
    43    19    21 1   
    44    19    22 1   
    45    21    23 1   
    46    21    25 2   
    47    22    43 1   
    48    24    29 1   
    49    24    47 1   
    50    26    29 2   
    51    27    29 2   
@<TRIPOS>SUBSTRUCTURE
     1 8NM         1 TEMP              0 ****  ****    0 ROOT
