@<TRIPOS>MOLECULE
8NN
   44    47     1     0     0
SMALL
No Charge or Current Charge


@<TRIPOS>ATOM
      1 C24        -36.4420   -17.7740    24.7580 cc         1 8NN      -0.150100
      2 C19        -34.9490   -19.8710    24.6420 c3         1 8NN      -0.004200
      3 C20        -35.2140   -18.3900    24.5450 cd         1 8NN      -0.089400
      4 C21        -34.2260   -17.3910    24.2090 ca         1 8NN      -0.075800
      5 C16        -34.9900   -19.9190    27.2130 c          1 8NN       0.709000
      6 C10        -31.5600   -24.4190    24.6600 ca         1 8NN       0.195100
      7 C01        -31.1830   -28.6110    25.1140 ca         1 8NN      -0.102000
      8 C02        -30.2850   -27.9220    24.2850 ca         1 8NN      -0.124000
      9 C03        -30.3990   -26.5320    24.1250 ca         1 8NN      -0.066000
     10 C04        -31.4170   -25.8190    24.7980 ca         1 8NN      -0.064000
     11 C05        -32.3240   -26.5130    25.6350 ca         1 8NN      -0.036000
     12 C06        -32.1990   -27.9130    25.7880 ca         1 8NN      -0.094000
     13 C07        -33.3350   -25.7710    26.2970 ca         1 8NN       0.417000
     14 N08        -33.4780   -24.4340    26.1700 nb         1 8NN      -0.597000
     15 C09        -32.6060   -23.7600    25.3640 ca         1 8NN       0.161500
     16 O13        -32.0190   -21.5700    24.5130 o          1 8NN      -0.705100
     17 N14        -33.8040   -21.6890    25.9330 ns         1 8NN      -0.396900
     18 C15        -34.1810   -20.2570    25.9290 c3         1 8NN      -0.039300
     19 O17        -34.5310   -19.0870    27.9830 o          1 8NN      -0.714500
     20 O18        -35.9720   -20.6030    27.4740 o          1 8NN      -0.714500
     21 C22        -34.8760   -16.1900    24.2290 ca         1 8NN      -0.044200
     22 N23        -36.2040   -16.3970    24.5560 na         1 8NN      -0.242700
     23 C25        -34.2120   -14.9900    23.9460 ca         1 8NN      -0.143000
     24 C26        -32.8350   -15.0550    23.6370 ca         1 8NN      -0.105000
     25 C27        -32.1630   -16.3020    23.6160 ca         1 8NN      -0.162000
     26 C28        -32.8610   -17.4960    23.9060 ca         1 8NN      -0.043000
     27 H1         -37.4120   -18.1830    25.0250 h4         1 8NN       0.211000
     28 H2         -35.8940   -20.4270    24.6030 hc         1 8NN       0.038200
     29 H3         -34.3720   -20.1900    23.7660 hc         1 8NN       0.038200
     30 H4         -31.0050   -22.7500    23.9260 ho         1 8NN       0.543000
     31 H5         -31.0930   -29.6890    25.2360 ha         1 8NN       0.108000
     32 H6         -29.5000   -28.4660    23.7650 ha         1 8NN       0.109000
     33 H7         -29.6930   -26.0150    23.4780 ha         1 8NN       0.133000
     34 H8         -32.8810   -28.4720    26.4240 ha         1 8NN       0.126000
     35 H9         -34.3580   -22.3390    26.4850 hn         1 8NN       0.367500
     36 H10        -33.2560   -19.6680    25.9680 h1         1 8NN       0.069700
     37 H12        -36.9000   -15.6620    24.6370 hn         1 8NN       0.336000
     38 H13        -34.7370   -14.0380    23.9640 ha         1 8NN       0.096000
     39 H14        -32.2880   -14.1420    23.4120 ha         1 8NN       0.091000
     40 H15        -31.1040   -16.3420    23.3760 ha         1 8NN       0.097000
     41 H16        -32.3580   -18.4600    23.8930 ha         1 8NN       0.128000
     42 C12        -32.7660   -22.2490    25.2170 c          1 8NN       0.494600
     43 O11        -30.7040   -23.7030    23.8580 oh         1 8NN      -0.566100
     44 Cl1        -34.5170   -26.5300    27.3610 cl         1 8NN      -0.192000
@<TRIPOS>BOND
     1     1     3 2   
     2     1    22 1   
     3     1    27 1   
     4     2     3 1   
     5     2    18 1   
     6     2    28 1   
     7     2    29 1   
     8     3     4 1   
     9     4    21 ar  
    10     4    26 ar  
    11     5    18 1   
    12     5    19 1   
    13     5    20 1   
    14     6    10 ar  
    15     6    15 ar  
    16     6    43 1   
    17     7     8 ar  
    18     7    12 ar  
    19     7    31 1   
    20     8     9 ar  
    21     8    32 1   
    22     9    10 ar  
    23     9    33 1   
    24    10    11 ar  
    25    11    12 ar  
    26    11    13 ar  
    27    12    34 1   
    28    13    14 ar  
    29    13    44 1   
    30    14    15 ar  
    31    15    42 1   
    32    16    42 2   
    33    17    18 1   
    34    17    35 1   
    35    17    42 1   
    36    18    36 1   
    37    21    22 1   
    38    21    23 ar  
    39    22    37 1   
    40    23    24 ar  
    41    23    38 1   
    42    24    25 ar  
    43    24    39 1   
    44    25    26 ar  
    45    25    40 1   
    46    26    41 1   
    47    30    43 1   
@<TRIPOS>SUBSTRUCTURE
     1 8NN         1 TEMP              0 ****  ****    0 ROOT
