@<TRIPOS>MOLECULE
8NN
   44    47     1     0     0
SMALL
abcg2


@<TRIPOS>ATOM
      1 C24        -36.3880   -17.7940    24.6960 cc         1 8NN      -0.150100
      2 C19        -34.9510   -19.9160    24.6880 c3         1 8NN      -0.004200
      3 C20        -35.1960   -18.4520    24.5400 cd         1 8NN      -0.089400
      4 C21        -34.2160   -17.4450    24.2280 ca         1 8NN      -0.075800
      5 C16        -34.8330   -19.9850    27.2430 c          1 8NN       0.709000
      6 C10        -31.5910   -24.3740    24.6560 ca         1 8NN       0.195100
      7 C01        -31.2290   -28.5530    25.1250 ca         1 8NN      -0.102000
      8 C02        -30.3150   -27.8610    24.3080 ca         1 8NN      -0.124000
      9 C03        -30.4200   -26.5000    24.1450 ca         1 8NN      -0.066000
     10 C04        -31.4460   -25.7870    24.7980 ca         1 8NN      -0.064000
     11 C05        -32.3680   -26.4840    25.6260 ca         1 8NN      -0.036000
     12 C06        -32.2370   -27.8800    25.7730 ca         1 8NN      -0.094000
     13 C07        -33.3750   -25.6930    26.2560 ca         1 8NN       0.417000
     14 N08        -33.4940   -24.4190    26.1210 nb         1 8NN      -0.597000
     15 C09        -32.6220   -23.7360    25.3310 ca         1 8NN       0.161500
     16 O13        -32.0070   -21.6050    24.4840 o          1 8NN      -0.705100
     17 N14        -33.7910   -21.7210    25.8890 ns         1 8NN      -0.396900
     18 C15        -34.0920   -20.3000    25.9190 c3         1 8NN      -0.039300
     19 O17        -34.6330   -18.8560    27.7440 o          1 8NN      -0.714500
     20 O18        -35.5870   -20.8900    27.6840 o          1 8NN      -0.714500
     21 C22        -34.8910   -16.1930    24.2130 ca         1 8NN      -0.044200
     22 N23        -36.2110   -16.4400    24.5030 na         1 8NN      -0.242700
     23 C25        -34.2300   -14.9970    23.9370 ca         1 8NN      -0.143000
     24 C26        -32.8700   -15.0610    23.6730 ca         1 8NN      -0.105000
     25 C27        -32.1820   -16.2890    23.6820 ca         1 8NN      -0.162000
     26 C28        -32.8410   -17.4760    23.9560 ca         1 8NN      -0.043000
     27 H1         -37.3610   -18.1900    24.9370 h4         1 8NN       0.211000
     28 H2         -35.9010   -20.4510    24.7570 hc         1 8NN       0.038200
     29 H3         -34.4290   -20.2970    23.8060 hc         1 8NN       0.038200
     30 H4         -31.0150   -22.7520    23.9300 ho         1 8NN       0.543000
     31 H5         -31.1350   -29.6240    25.2440 ha         1 8NN       0.108000
     32 H6         -29.5260   -28.4060    23.8060 ha         1 8NN       0.109000
     33 H7         -29.7230   -25.9620    23.5190 ha         1 8NN       0.133000
     34 H8         -32.9360   -28.4150    26.4000 ha         1 8NN       0.126000
     35 H9         -34.3850   -22.3140    26.4540 hn         1 8NN       0.367500
     36 H10        -33.1560   -19.7460    25.8920 h1         1 8NN       0.069700
     37 H12        -36.9390   -15.7470    24.5500 hn         1 8NN       0.336000
     38 H13        -34.7600   -14.0530    23.9300 ha         1 8NN       0.096000
     39 H14        -32.3270   -14.1490    23.4570 ha         1 8NN       0.091000
     40 H15        -31.1190   -16.3010    23.4720 ha         1 8NN       0.097000
     41 H16        -32.3010   -18.4150    23.9600 ha         1 8NN       0.128000
     42 C12        -32.7930   -22.2690    25.2060 c          1 8NN       0.494600
     43 O11        -30.7280   -23.7140    23.8790 oh         1 8NN      -0.566100
     44 CL1        -34.5520   -26.4850    27.3010 cl         1 8NN      -0.192000
@<TRIPOS>BOND
     1     1     3 2   
     2     1    22 1   
     3     1    27 1   
     4     2     3 1   
     5     2    18 1   
     6     2    28 1   
     7     2    29 1   
     8     3     4 1   
     9     4    21 ar  
    10     4    26 ar  
    11     5    18 1   
    12     5    19 1   
    13     5    20 1   
    14     6    10 ar  
    15     6    15 ar  
    16     6    43 1   
    17     7     8 ar  
    18     7    12 ar  
    19     7    31 1   
    20     8     9 ar  
    21     8    32 1   
    22     9    10 ar  
    23     9    33 1   
    24    10    11 ar  
    25    11    12 ar  
    26    11    13 ar  
    27    12    34 1   
    28    13    14 ar  
    29    13    44 1   
    30    14    15 ar  
    31    15    42 1   
    32    16    42 2   
    33    17    18 1   
    34    17    35 1   
    35    17    42 1   
    36    18    36 1   
    37    21    22 1   
    38    21    23 ar  
    39    22    37 1   
    40    23    24 ar  
    41    23    38 1   
    42    24    25 ar  
    43    24    39 1   
    44    25    26 ar  
    45    25    40 1   
    46    26    41 1   
    47    30    43 1   
@<TRIPOS>SUBSTRUCTURE
     1 8NN         1 TEMP              0 ****  ****    0 ROOT
