@<TRIPOS>MOLECULE
8NO
   45    47     1     0     0
SMALL
No Charge or Current Charge


@<TRIPOS>ATOM
      1 O8           3.0960    -2.1550    -0.5100 o          1 8NO      -0.599100
      2 C7           3.9590    -1.7430     0.2490 c          1 8NO       0.620700
      3 N9           4.3090    -2.5110     1.3050 nt         1 8NO      -0.598000
      4 C5           4.7560    -0.4790     0.0300 ca         1 8NO      -0.170600
      5 C6           6.1330    -0.4730     0.3700 ca         1 8NO      -0.086000
      6 C1           6.9350     0.6500     0.1130 ca         1 8NO      -0.117000
      7 C4           4.1930     0.6890    -0.5500 ca         1 8NO       0.299000
      8 C3           5.0160     1.7990    -0.8190 ca         1 8NO      -0.102000
      9 C2           6.3800     1.7850    -0.4900 ca         1 8NO      -0.091000
     10 N10          2.8320     0.8280    -0.8430 nu         1 8NO      -0.973000
     11 C11          1.6780     0.5770    -0.1030 ca         1 8NO       0.341000
     12 C16          0.4350     0.5940    -0.7490 ca         1 8NO      -0.207000
     13 C15         -0.7440     0.3620    -0.0280 ca         1 8NO       0.183100
     14 C14         -0.6790     0.1200     1.3600 ca         1 8NO      -0.241000
     15 C13          0.5640     0.1180     2.0140 ca         1 8NO      -0.043000
     16 C12          1.7390     0.3510     1.2820 ca         1 8NO      -0.212000
     17 O11         -1.9360     0.3830    -0.7220 os         1 8NO      -0.352100
     18 C17         -3.2010     0.1570    -0.0770 c3         1 8NO       0.167600
     19 C18         -4.3010     0.2540    -1.1490 c3         1 8NO      -0.036100
     20 C24         -5.6900     0.0280    -0.5640 ca         1 8NO      -0.085300
     21 C23         -6.2310    -1.2710    -0.5000 ca         1 8NO      -0.105000
     22 C22         -7.5100    -1.4800     0.0460 ca         1 8NO      -0.109500
     23 C21         -8.2530    -0.3920     0.5330 ca         1 8NO      -0.109000
     24 C20         -7.7180     0.9060     0.4740 ca         1 8NO      -0.109500
     25 C19         -6.4390     1.1150    -0.0720 ca         1 8NO      -0.105000
     26 H1           3.8200    -3.3780     1.4670 hn         1 8NO       0.316000
     27 H2           5.0240    -2.1960     1.9440 hn         1 8NO       0.316000
     28 H3           6.6030    -1.3540     0.8030 ha         1 8NO       0.118000
     29 H4           7.9930     0.6340     0.3700 ha         1 8NO       0.118000
     30 H5           4.5880     2.6920    -1.2650 ha         1 8NO       0.131000
     31 H6           7.0000     2.6550    -0.6950 ha         1 8NO       0.119000
     32 H7           2.6480     1.3300    -1.7120 hn         1 8NO       0.491000
     33 H8           0.3790     0.7790    -1.8170 ha         1 8NO       0.129000
     34 H9          -1.5750    -0.0620     1.9460 ha         1 8NO       0.117000
     35 H10          0.6170    -0.0600     3.0860 ha         1 8NO       0.105000
     36 H11          2.6930     0.3640     1.7980 ha         1 8NO       0.116000
     37 H12         -3.2290    -0.8380     0.3860 h1         1 8NO       0.037700
     38 H13         -3.3820     0.9120     0.7000 h1         1 8NO       0.037700
     39 H14         -4.2480     1.2400    -1.6270 hc         1 8NO       0.062700
     40 H15         -4.0980    -0.4820    -1.9360 hc         1 8NO       0.062700
     41 H16         -5.6610    -2.1200    -0.8730 ha         1 8NO       0.113000
     42 H17         -7.9230    -2.4850     0.0920 ha         1 8NO       0.113000
     43 H18         -9.2430    -0.5540     0.9560 ha         1 8NO       0.113000
     44 H19         -8.2920     1.7490     0.8520 ha         1 8NO       0.113000
     45 H20         -6.0310     2.1230    -0.1120 ha         1 8NO       0.113000
@<TRIPOS>BOND
     1     1     2 2   
     2     2     3 1   
     3     2     4 1   
     4     3    26 1   
     5     3    27 1   
     6     4     5 ar  
     7     4     7 ar  
     8     5     6 ar  
     9     5    28 1   
    10     6     9 ar  
    11     6    29 1   
    12     7     8 ar  
    13     7    10 1   
    14     8     9 ar  
    15     8    30 1   
    16     9    31 1   
    17    10    11 1   
    18    10    32 1   
    19    11    12 ar  
    20    11    16 ar  
    21    12    13 ar  
    22    12    33 1   
    23    13    14 ar  
    24    13    17 1   
    25    14    15 ar  
    26    14    34 1   
    27    15    16 ar  
    28    15    35 1   
    29    16    36 1   
    30    17    18 1   
    31    18    19 1   
    32    18    37 1   
    33    18    38 1   
    34    19    20 1   
    35    19    39 1   
    36    19    40 1   
    37    20    21 ar  
    38    20    25 ar  
    39    21    22 ar  
    40    21    41 1   
    41    22    23 ar  
    42    22    42 1   
    43    23    24 ar  
    44    23    43 1   
    45    24    25 ar  
    46    24    44 1   
    47    25    45 1   
@<TRIPOS>SUBSTRUCTURE
     1 8NO         1 TEMP              0 ****  ****    0 ROOT
