@<TRIPOS>MOLECULE
8NO
   45    47     1     0     0
SMALL
bcc


@<TRIPOS>ATOM
      1 O8           3.0930    -1.8590    -1.4110 o          1 8NO      -0.599100
      2 C7           3.6430    -1.6550    -0.3390 c          1 8NO       0.687700
      3 N9           3.5340    -2.4670     0.7210 nt         1 8NO      -0.665000
      4 C5           4.5430    -0.4740    -0.1330 ca         1 8NO      -0.170600
      5 C6           5.8240    -0.6640     0.3760 ca         1 8NO      -0.104000
      6 C1           6.7040     0.4030     0.4980 ca         1 8NO      -0.135000
      7 C4           4.1350     0.8110    -0.5110 ca         1 8NO       0.160600
      8 C3           5.0160     1.8750    -0.3680 ca         1 8NO      -0.120000
      9 C2           6.2990     1.6750     0.1240 ca         1 8NO      -0.109000
     10 N10          2.8350     1.0710    -1.0100 nu         1 8NO      -0.641000
     11 C11          1.7140     0.8220    -0.2400 ca         1 8NO       0.202600
     12 C16          0.4820     0.6450    -0.8680 ca         1 8NO      -0.225000
     13 C15         -0.6780     0.4520    -0.1240 ca         1 8NO       0.183100
     14 C14         -0.6230     0.4190     1.2690 ca         1 8NO      -0.259000
     15 C13          0.6120     0.5950     1.8830 ca         1 8NO      -0.061000
     16 C12          1.7730     0.7950     1.1590 ca         1 8NO      -0.230000
     17 O11         -1.8120     0.2980    -0.8390 os         1 8NO      -0.328900
     18 C17         -3.0360     0.1120    -0.1510 c3         1 8NO       0.144400
     19 C18         -4.1470     0.0400    -1.1860 c3         1 8NO      -0.036100
     20 C24         -5.4790    -0.1470    -0.5120 ca         1 8NO      -0.085300
     21 C23         -5.9760    -1.4220    -0.2530 ca         1 8NO      -0.123000
     22 C22         -7.1900    -1.5930     0.3990 ca         1 8NO      -0.127500
     23 C21         -7.9260    -0.4870     0.8050 ca         1 8NO      -0.127000
     24 C20         -7.4390     0.7900     0.5530 ca         1 8NO      -0.127500
     25 C19         -6.2240     0.9550    -0.0990 ca         1 8NO      -0.123000
     26 H1           2.9490    -3.2870     0.6720 hn         1 8NO       0.316000
     27 H2           3.9040    -2.2170     1.6210 hn         1 8NO       0.316000
     28 H3           6.1500    -1.6570     0.6590 ha         1 8NO       0.136000
     29 H4           7.7000     0.2370     0.8850 ha         1 8NO       0.136000
     30 H5           4.6810     2.8670    -0.6410 ha         1 8NO       0.149000
     31 H6           6.9760     2.5130     0.2210 ha         1 8NO       0.137000
     32 H7           2.7190     0.8620    -1.9910 hn         1 8NO       0.435800
     33 H8           0.4210     0.6590    -1.9510 ha         1 8NO       0.147000
     34 H9          -1.5030     0.2640     1.8760 ha         1 8NO       0.135000
     35 H10          0.6650     0.5760     2.9640 ha         1 8NO       0.123000
     36 H11          2.7120     0.9400     1.6780 ha         1 8NO       0.134000
     37 H12         -3.0110    -0.8110     0.4400 h1         1 8NO       0.037700
     38 H13         -3.2210     0.9430     0.5400 h1         1 8NO       0.037700
     39 H14         -4.1500     0.9590    -1.7760 hc         1 8NO       0.062700
     40 H15         -3.9540    -0.7880    -1.8710 hc         1 8NO       0.062700
     41 H16         -5.4120    -2.2920    -0.5690 ha         1 8NO       0.131000
     42 H17         -7.5640    -2.5910     0.5870 ha         1 8NO       0.131000
     43 H18         -8.8730    -0.6190     1.3110 ha         1 8NO       0.131000
     44 H19         -8.0070     1.6590     0.8600 ha         1 8NO       0.131000
     45 H20         -5.8520     1.9540    -0.2950 ha         1 8NO       0.131000
@<TRIPOS>BOND
     1     1     2 2   
     2     2     3 1   
     3     2     4 1   
     4     3    26 1   
     5     3    27 1   
     6     4     5 ar  
     7     4     7 ar  
     8     5     6 ar  
     9     5    28 1   
    10     6     9 ar  
    11     6    29 1   
    12     7     8 ar  
    13     7    10 1   
    14     8     9 ar  
    15     8    30 1   
    16     9    31 1   
    17    10    11 1   
    18    10    32 1   
    19    11    12 ar  
    20    11    16 ar  
    21    12    13 ar  
    22    12    33 1   
    23    13    14 ar  
    24    13    17 1   
    25    14    15 ar  
    26    14    34 1   
    27    15    16 ar  
    28    15    35 1   
    29    16    36 1   
    30    17    18 1   
    31    18    19 1   
    32    18    37 1   
    33    18    38 1   
    34    19    20 1   
    35    19    39 1   
    36    19    40 1   
    37    20    21 ar  
    38    20    25 ar  
    39    21    22 ar  
    40    21    41 1   
    41    22    23 ar  
    42    22    42 1   
    43    23    24 ar  
    44    23    43 1   
    45    24    25 ar  
    46    24    44 1   
    47    25    45 1   
@<TRIPOS>SUBSTRUCTURE
     1 8NO         1 TEMP              0 ****  ****    0 ROOT
