@<TRIPOS>MOLECULE
8NP
   36    38     1     0     0
SMALL
No Charge or Current Charge


@<TRIPOS>ATOM
      1 C4           4.4040    -2.2660     0.6880 ca         1 8NP      -0.092000
      2 C5           1.5960     3.4800    -0.0770 ca         1 8NP      -0.084000
      3 C6          -0.7240     2.7540    -0.1440 ca         1 8NP      -0.084000
      4 C7           2.9110    -0.5940    -1.0130 ca         1 8NP      -0.135000
      5 C8           3.2860    -1.5740     1.1860 ca         1 8NP      -0.135000
      6 C10         -0.3580     1.4290     0.1940 ca         1 8NP      -0.042800
      7 C13         -2.7930     0.7160     0.6590 cc         1 8NP      -0.090000
      8 C15         -1.4240     0.4070     0.3200 cc         1 8NP      -0.130200
      9 C17         -3.4280    -1.6700     0.2860 c          1 8NP       0.549200
     10 C1           4.7770    -2.1180    -0.6600 ca         1 8NP      -0.121000
     11 C2           0.2410     3.7640    -0.2850 ca         1 8NP      -0.129000
     12 C3           4.0290    -1.2850    -1.5110 ca         1 8NP      -0.092000
     13 C9           1.9830     2.1800     0.2780 ca         1 8NP      -0.160000
     14 C11          2.5440    -0.7300     0.3420 ca         1 8NP       0.106100
     15 C12          1.0240     1.1550     0.4080 ca         1 8NP       0.127100
     16 C14         -1.1290    -0.8840    -0.0890 cd         1 8NP      -0.007400
     17 C16         -3.7650    -0.2690     0.6640 cd         1 8NP      -0.208400
     18 C18         -5.2070    -0.0100     1.0420 c3         1 8NP      -0.032900
     19 N19         -2.1160    -1.8560    -0.0690 ns         1 8NP      -0.359100
     20 O20         -4.2260    -2.5960     0.2720 o          1 8NP      -0.564000
     21 O21          1.4430    -0.0810     0.8550 os         1 8NP      -0.257200
     22 H1           4.9800    -2.9150     1.3440 ha         1 8NP       0.117000
     23 H2           2.3420     4.2650    -0.1780 ha         1 8NP       0.116000
     24 H3          -1.7630     3.0080    -0.3340 ha         1 8NP       0.118000
     25 H4           2.3320     0.0400    -1.6800 ha         1 8NP       0.127500
     26 H5           2.9940    -1.6890     2.2270 ha         1 8NP       0.127500
     27 H7           5.6420    -2.6540    -1.0460 ha         1 8NP       0.117000
     28 H8          -0.0650     4.7720    -0.5590 ha         1 8NP       0.118000
     29 H9           4.3150    -1.1770    -2.5550 ha         1 8NP       0.117000
     30 H10          3.0330     1.9710     0.4710 ha         1 8NP       0.128000
     31 H11         -0.1740    -1.2310    -0.4680 h4         1 8NP       0.205000
     32 H13         -5.8830    -0.2560     0.2140 hc         1 8NP       0.046033
     33 H14         -5.5030    -0.6140     1.9090 hc         1 8NP       0.046033
     34 H15         -5.3740     1.0420     1.3020 hc         1 8NP       0.046033
     35 H12         -1.8940    -2.8040    -0.3490 hn         1 8NP       0.327500
     36 H6          -3.0530     1.7320     0.9450 ha         1 8NP       0.185000
@<TRIPOS>BOND
     1     1     5 ar  
     2     1    10 ar  
     3     1    22 1   
     4     2    11 ar  
     5     2    13 ar  
     6     2    23 1   
     7     3     6 ar  
     8     3    11 ar  
     9     3    24 1   
    10     4    12 ar  
    11     4    14 ar  
    12     4    25 1   
    13     5    14 ar  
    14     5    26 1   
    15     6     8 1   
    16     6    15 ar  
    17     7     8 1   
    18     7    17 2   
    19     7    36 1   
    20     8    16 2   
    21     9    17 1   
    22     9    19 1   
    23     9    20 2   
    24    10    12 ar  
    25    10    27 1   
    26    11    28 1   
    27    12    29 1   
    28    13    15 ar  
    29    13    30 1   
    30    14    21 1   
    31    15    21 1   
    32    16    19 1   
    33    16    31 1   
    34    17    18 1   
    35    18    32 1   
    36    18    33 1   
    37    18    34 1   
    38    19    35 1   
@<TRIPOS>SUBSTRUCTURE
     1 8NP         1 TEMP              0 ****  ****    0 ROOT
