@<TRIPOS>MOLECULE
8NP
   36    38     1     0     0
SMALL
bcc


@<TRIPOS>ATOM
      1 C4           4.4070    -2.0060     0.9030 ca         1 8NP      -0.110000
      2 C5           1.5890     3.3820    -0.0060 ca         1 8NP      -0.102000
      3 C6          -0.6990     2.7100    -0.2360 ca         1 8NP      -0.102000
      4 C7           2.8810    -0.7470    -1.0500 ca         1 8NP      -0.153000
      5 C8           3.2230    -1.3730     1.2570 ca         1 8NP      -0.153000
      6 C10         -0.3710     1.3790     0.0290 ca         1 8NP      -0.042800
      7 C13         -2.6750     0.6070     0.6930 cc         1 8NP      -0.040000
      8 C15         -1.4310     0.3530     0.0500 cc         1 8NP      -0.130200
      9 C17         -3.5370    -1.5720     0.0610 c          1 8NP       0.691700
     10 C1           4.8370    -2.0080    -0.4170 ca         1 8NP      -0.139000
     11 C2           0.2640     3.7060    -0.2600 ca         1 8NP      -0.147000
     12 C3           4.0710    -1.3750    -1.3880 ca         1 8NP      -0.110000
     13 C9           1.9420     2.0720     0.2770 ca         1 8NP      -0.178000
     14 C11          2.4640    -0.7520     0.2760 ca         1 8NP       0.106100
     15 C12          0.9690     1.0810     0.2970 ca         1 8NP       0.127100
     16 C14         -1.3060    -0.8490    -0.5750 cd         1 8NP       0.042600
     17 C16         -3.6980    -0.2910     0.7130 cd         1 8NP      -0.208400
     18 C18         -4.9880    -0.0300     1.4220 c3         1 8NP      -0.032900
     19 N19         -2.3180    -1.7420    -0.5600 ns         1 8NP      -0.426100
     20 O20         -4.3830    -2.4630     0.0310 o          1 8NP      -0.639500
     21 O21          1.2650    -0.2050     0.6450 os         1 8NP      -0.257200
     22 H1           4.9970    -2.4940     1.6680 ha         1 8NP       0.135000
     23 H2           2.3530     4.1480    -0.0150 ha         1 8NP       0.134000
     24 H3          -1.7300     2.9630    -0.4510 ha         1 8NP       0.136000
     25 H4           2.2840    -0.2630    -1.8130 ha         1 8NP       0.145500
     26 H5           2.8870    -1.3650     2.2860 ha         1 8NP       0.145500
     27 H7           5.7610    -2.4990    -0.6880 ha         1 8NP       0.135000
     28 H8          -0.0200     4.7260    -0.4830 ha         1 8NP       0.136000
     29 H9           4.3970    -1.3730    -2.4200 ha         1 8NP       0.135000
     30 H10          2.9740     1.8290     0.4980 ha         1 8NP       0.146000
     31 H11         -0.4350    -1.1500    -1.1380 h4         1 8NP       0.155000
     32 H13         -5.8420    -0.3730     0.8380 hc         1 8NP       0.046033
     33 H14         -5.0260    -0.5580     2.3780 hc         1 8NP       0.046033
     34 H15         -5.1180     1.0320     1.6210 hc         1 8NP       0.046033
     35 H12         -2.1830    -2.6170    -1.0490 hn         1 8NP       0.327500
     36 H6          -2.8100     1.5590     1.1950 ha         1 8NP       0.135000
@<TRIPOS>BOND
     1     1     5 ar  
     2     1    10 ar  
     3     1    22 1   
     4     2    11 ar  
     5     2    13 ar  
     6     2    23 1   
     7     3     6 ar  
     8     3    11 ar  
     9     3    24 1   
    10     4    12 ar  
    11     4    14 ar  
    12     4    25 1   
    13     5    14 ar  
    14     5    26 1   
    15     6     8 1   
    16     6    15 ar  
    17     7     8 1   
    18     7    17 2   
    19     7    36 1   
    20     8    16 2   
    21     9    17 1   
    22     9    19 1   
    23     9    20 2   
    24    10    12 ar  
    25    10    27 1   
    26    11    28 1   
    27    12    29 1   
    28    13    15 ar  
    29    13    30 1   
    30    14    21 1   
    31    15    21 1   
    32    16    19 1   
    33    16    31 1   
    34    17    18 1   
    35    18    32 1   
    36    18    33 1   
    37    18    34 1   
    38    19    35 1   
@<TRIPOS>SUBSTRUCTURE
     1 8NP         1 TEMP              0 ****  ****    0 ROOT
