@<TRIPOS>MOLECULE
8NQ
   50    54     1     0     0
SMALL
No Charge or Current Charge


@<TRIPOS>ATOM
      1 C4          -0.9020    -4.7030     0.7200 cx         1 8NQ      -0.122700
      2 C14          4.5220     1.0690     0.0160 ca         1 8NQ      -0.181900
      3 C5           0.3560    -3.8980     0.6870 cx         1 8NQ       0.044700
      4 C6           0.3630    -5.3010     0.1460 cx         1 8NQ      -0.142400
      5 C11          2.8780     2.2380     1.9370 ca         1 8NQ      -0.071000
      6 C8           2.5160    -1.9350     0.2230 c3         1 8NQ       0.014600
      7 C9           3.4680     0.3770     0.5310 ca         1 8NQ      -0.037200
      8 C10          2.6120     0.9230     1.4980 ca         1 8NQ      -0.122000
      9 C12          3.9740     2.9600     1.4060 ca         1 8NQ      -0.146000
     10 C13          4.8150     2.3780     0.4310 ca         1 8NQ      -0.024000
     11 N1           0.1490    -2.7350    -0.1250 n          1 8NQ      -0.372800
     12 N2           3.4680    -0.8560    -0.0870 na         1 8NQ       0.098600
     13 C3          -1.8490    -4.0420    -0.3190 c5         1 8NQ      -0.056400
     14 C1          -2.0800    -1.5210     0.1210 c          1 8NQ       0.615100
     15 C2          -1.2430    -2.6060    -0.6280 c5         1 8NQ       0.019700
     16 C15          5.1520     0.1710    -0.9420 cc         1 8NQ       0.304900
     17 C16          6.3710     0.5210    -1.7620 c          1 8NQ       0.560800
     18 O2           6.9730     1.5860    -1.7280 o          1 8NQ      -0.605100
     19 N4           4.5060    -1.0170    -0.9970 nd         1 8NQ      -0.518100
     20 O3           0.8220    -0.7530    -1.0540 o          1 8NQ      -0.565100
     21 N5          -3.1900    -1.2250    -0.6450 ns         1 8NQ      -0.322900
     22 C17         -4.2570    -0.3530    -0.3980 ca         1 8NQ       0.500900
     23 C18         -4.9770     0.2150    -1.4610 ca         1 8NQ      -0.210000
     24 C19         -6.0800     1.0380    -1.1790 ca         1 8NQ      -0.043000
     25 C20         -6.4190     1.2370     0.1690 ca         1 8NQ      -0.173000
     26 C21         -5.6540     0.6060     1.1630 ca         1 8NQ       0.447200
     27 Br1         -6.0910     0.8360     3.0090 br         1 8NQ      -0.153200
     28 N6          -4.5950    -0.1860     0.8960 nb         1 8NQ      -0.662000
     29 H1          -1.2710    -5.0490     1.6830 hc         1 8NQ       0.101700
     30 H2           0.8380    -3.6570     1.6360 h1         1 8NQ       0.110700
     31 H3           0.8740    -6.0620     0.7310 hc         1 8NQ       0.083700
     32 H4           0.4400    -5.4290    -0.9310 hc         1 8NQ       0.083700
     33 H6           2.4170    -2.0160     1.3100 h1         1 8NQ       0.086200
     34 H7           2.9090    -2.8840    -0.1570 h1         1 8NQ       0.086200
     35 H8           1.7700     0.3620     1.8990 ha         1 8NQ       0.124000
     36 H9           4.1710     3.9730     1.7510 ha         1 8NQ       0.115000
     37 H10          5.6570     2.9350     0.0250 ha         1 8NQ       0.141000
     38 H11         -1.8980    -4.6410    -1.2370 hc         1 8NQ       0.068200
     39 H12         -2.8800    -3.9860     0.0520 hc         1 8NQ       0.068200
     40 H13          6.3310    -1.3340    -2.6410 hn         1 8NQ       0.321500
     41 H14          7.6290    -0.2770    -3.1770 hn         1 8NQ       0.321500
     42 H15         -1.2610    -2.3870    -1.7040 h1         1 8NQ       0.064700
     43 H16         -3.2490    -1.7090    -1.5310 hn         1 8NQ       0.154000
     44 H17         -4.6800     0.0220    -2.4880 ha         1 8NQ       0.124000
     45 H18         -6.6550     1.5020    -1.9780 ha         1 8NQ       0.123000
     46 H19         -7.2630     1.8630     0.4440 ha         1 8NQ       0.143000
     47 C7           1.1140    -1.7330    -0.3750 c          1 8NQ       0.588100
     48 O1          -1.7930    -0.9820     1.1840 o          1 8NQ      -0.502100
     49 H5           2.2370     2.6980     2.6860 ha         1 8NQ       0.115000
     50 N3           6.8180    -0.4490    -2.6020 nt         1 8NQ      -0.597000
@<TRIPOS>BOND
     1     1     3 1   
     2     1     4 1   
     3     1    13 1   
     4     1    29 1   
     5     2     7 ar  
     6     2    10 ar  
     7     2    16 1   
     8     3     4 1   
     9     3    11 1   
    10     3    30 1   
    11     4    31 1   
    12     4    32 1   
    13     5     8 ar  
    14     5     9 ar  
    15     5    49 1   
    16     6    12 1   
    17     6    33 1   
    18     6    34 1   
    19     6    47 1   
    20     7     8 ar  
    21     7    12 1   
    22     8    35 1   
    23     9    10 ar  
    24     9    36 1   
    25    10    37 1   
    26    11    15 1   
    27    11    47 1   
    28    12    19 1   
    29    13    15 1   
    30    13    38 1   
    31    13    39 1   
    32    14    15 1   
    33    14    21 1   
    34    14    48 2   
    35    15    42 1   
    36    16    17 1   
    37    16    19 2   
    38    17    18 2   
    39    17    50 1   
    40    20    47 2   
    41    21    22 1   
    42    21    43 1   
    43    22    23 ar  
    44    22    28 ar  
    45    23    24 ar  
    46    23    44 1   
    47    24    25 ar  
    48    24    45 1   
    49    25    26 ar  
    50    25    46 1   
    51    26    27 1   
    52    26    28 ar  
    53    40    50 1   
    54    41    50 1   
@<TRIPOS>SUBSTRUCTURE
     1 8NQ         1 TEMP              0 ****  ****    0 ROOT
