@<TRIPOS>MOLECULE
8NQ
   50    54     1     0     0
SMALL
bcc


@<TRIPOS>ATOM
      1 C4          -0.6500    -5.0310     0.6470 cx         1 8NQ      -0.122700
      2 C14          4.1110     1.1380     0.0950 ca         1 8NQ      -0.181900
      3 C5           0.5340    -4.1450     0.7950 cx         1 8NQ       0.044700
      4 C6           0.5840    -5.2990    -0.1630 cx         1 8NQ      -0.142400
      5 C11          2.8670     2.0370     2.4020 ca         1 8NQ      -0.089000
      6 C8           2.4350    -2.0300     0.5310 c3         1 8NQ      -0.014700
      7 C9           3.2640     0.3080     0.8460 ca         1 8NQ      -0.037200
      8 C10          2.6230     0.7410     2.0100 ca         1 8NQ      -0.140000
      9 C12          3.7200     2.8850     1.6660 ca         1 8NQ      -0.164000
     10 C13          4.3460     2.4540     0.5180 ca         1 8NQ      -0.042000
     11 N1           0.1840    -2.8790     0.2170 n          1 8NQ      -0.439800
     12 N2           3.2470    -0.8950     0.2110 na         1 8NQ       0.127900
     13 C3          -1.7760    -4.2190     0.0440 c5         1 8NQ      -0.056400
     14 C1          -1.9530    -1.6970     0.1680 c          1 8NQ       0.682100
     15 C2          -1.1400    -2.8710    -0.3740 c5         1 8NQ       0.019700
     16 C15          4.5210     0.3120    -0.9900 cc         1 8NQ       0.304900
     17 C16          5.4210     0.6730    -2.1060 c          1 8NQ       0.627800
     18 O2           5.9100     1.7930    -2.1670 o          1 8NQ      -0.605100
     19 N4           3.9800    -0.8800    -0.8910 nd         1 8NQ      -0.518100
     20 O3           0.6950    -0.8690    -0.6460 o          1 8NQ      -0.565100
     21 N5          -2.8300    -1.1980    -0.7540 ns         1 8NQ      -0.556400
     22 C17         -3.7920    -0.2120    -0.6040 ca         1 8NQ       0.566200
     23 C18         -4.5340     0.1620    -1.7290 ca         1 8NQ      -0.293300
     24 C19         -5.4950     1.1390    -1.5780 ca         1 8NQ      -0.061000
     25 C20         -5.7030     1.7250    -0.3340 ca         1 8NQ      -0.256300
     26 C21         -4.9030     1.2640     0.6940 ca         1 8NQ       0.512500
     27 BR1         -5.1200     2.0060     2.4280 br         1 8NQ      -0.153200
     28 N6          -3.9840     0.3370     0.5840 nb         1 8NQ      -0.662000
     29 H1          -0.9000    -5.7280     1.4370 hc         1 8NQ       0.101700
     30 H2           1.1350    -4.1250     1.6950 h1         1 8NQ       0.110700
     31 H3           1.1800    -6.1570     0.1220 hc         1 8NQ       0.083700
     32 H4           0.5840    -5.0840    -1.2250 hc         1 8NQ       0.083700
     33 H6           2.4030    -2.1570     1.6150 h1         1 8NQ       0.086200
     34 H7           2.9100    -2.9220     0.1210 h1         1 8NQ       0.086200
     35 H8           1.9640     0.0960     2.5770 ha         1 8NQ       0.142000
     36 H9           3.8810     3.8970     2.0140 ha         1 8NQ       0.133000
     37 H10          4.9990     3.1080    -0.0410 ha         1 8NQ       0.159000
     38 H11         -2.2500    -4.7040    -0.8090 hc         1 8NQ       0.068200
     39 H12         -2.5450    -4.0680     0.8020 hc         1 8NQ       0.068200
     40 H13          5.2110    -1.1960    -2.9310 hn         1 8NQ       0.321500
     41 H14          6.2270    -0.1120    -3.8080 hn         1 8NQ       0.321500
     42 H15         -1.0590    -2.8090    -1.4630 h1         1 8NQ       0.064700
     43 H16         -2.7640    -1.5840    -1.6840 hn         1 8NQ       0.320500
     44 H17         -4.3590    -0.3030    -2.6900 ha         1 8NQ       0.142000
     45 H18         -6.0890     1.4510    -2.4260 ha         1 8NQ       0.141000
     46 H19         -6.4480     2.4930    -0.1880 ha         1 8NQ       0.161000
     47 C7           1.0270    -1.8660    -0.0300 c          1 8NQ       0.655100
     48 O1          -1.8470    -1.3230     1.3100 o          1 8NQ      -0.502100
     49 H5           2.3920     2.4170     3.2960 ha         1 8NQ       0.133000
     50 N3           5.6440    -0.2920    -3.0070 nt         1 8NQ      -0.664000
@<TRIPOS>BOND
     1     1     3 1   
     2     1     4 1   
     3     1    13 1   
     4     1    29 1   
     5     2     7 ar  
     6     2    10 ar  
     7     2    16 1   
     8     3     4 1   
     9     3    11 1   
    10     3    30 1   
    11     4    31 1   
    12     4    32 1   
    13     5     8 ar  
    14     5     9 ar  
    15     5    49 1   
    16     6    12 1   
    17     6    33 1   
    18     6    34 1   
    19     6    47 1   
    20     7     8 ar  
    21     7    12 1   
    22     8    35 1   
    23     9    10 ar  
    24     9    36 1   
    25    10    37 1   
    26    11    15 1   
    27    11    47 1   
    28    12    19 1   
    29    13    15 1   
    30    13    38 1   
    31    13    39 1   
    32    14    15 1   
    33    14    21 1   
    34    14    48 2   
    35    15    42 1   
    36    16    17 1   
    37    16    19 2   
    38    17    18 2   
    39    17    50 1   
    40    20    47 2   
    41    21    22 1   
    42    21    43 1   
    43    22    23 ar  
    44    22    28 ar  
    45    23    24 ar  
    46    23    44 1   
    47    24    25 ar  
    48    24    45 1   
    49    25    26 ar  
    50    25    46 1   
    51    26    27 1   
    52    26    28 ar  
    53    40    50 1   
    54    41    50 1   
@<TRIPOS>SUBSTRUCTURE
     1 8NQ         1 TEMP              0 ****  ****    0 ROOT
