@<TRIPOS>MOLECULE
8NR
   52    55     1     0     0
SMALL
bcc


@<TRIPOS>ATOM
      1 CAA         -2.2350     1.7150     1.7270 ca         1 8NR      -0.113000
      2 CAB         -1.0090     2.1120     1.2720 ca         1 8NR      -0.094000
      3 CAC         -0.5060     1.6120     0.0480 ca         1 8NR      -0.137600
      4 CAD         -1.2600     0.7550    -0.7110 ca         1 8NR      -0.136300
      5 CAE         -2.5420     0.3520    -0.2740 ca         1 8NR       0.396600
      6 CAF         -3.0290     0.8300     0.9640 ca         1 8NR      -0.136300
      7 CAH         -4.4480    -0.8770    -0.6570 ca         1 8NR       0.445600
      8 CAI         -5.0230    -0.4740     0.5830 ca         1 8NR      -0.177600
      9 CAJ         -4.3020     0.3830     1.3700 ca         1 8NR      -0.092000
     10 CAK         -5.2130    -1.7640    -1.6040 c6         1 8NR      -0.133700
     11 CAL         -6.3510    -2.5250    -0.9390 c6         1 8NR      -0.074400
     12 CAM         -7.1960    -1.5790    -0.0990 c6         1 8NR      -0.074400
     13 CAN         -6.3620    -0.9980     1.0350 c6         1 8NR      -0.027100
     14 CAP          0.8010     2.1480    -0.4450 c          1 8NR       0.680700
     15 CAS          3.0200     1.7350    -1.3450 c6         1 8NR       0.072000
     16 CAT          4.1270     1.5810    -0.3120 c6         1 8NR       0.084000
     17 CAV          2.9240    -0.2940     0.6650 c6         1 8NR       0.084000
     18 CAW          1.8170    -0.1210    -0.3680 c6         1 8NR       0.072000
     19 CAX          5.3290    -0.5040     0.0560 c          1 8NR       0.767100
     20 CBA          6.3320    -2.6100     0.4510 c3         1 8NR       0.162400
     21 CBB          5.9100    -3.9600     0.9800 c3         1 8NR      -0.100100
     22 NAG         -3.2640    -0.4810    -1.0540 nb         1 8NR      -0.674000
     23 NAR          1.7540     1.2620    -0.8110 n          1 8NR      -0.468800
     24 NAU          4.1840     0.2070     0.1500 n          1 8NR      -0.478800
     25 OAQ          0.9460     3.3600    -0.5300 o          1 8NR      -0.588100
     26 OAY          6.3740    -0.0700    -0.3920 o          1 8NR      -0.594000
     27 OAZ          5.1910    -1.7470     0.5150 os         1 8NR      -0.441900
     28 H1          -2.6100     2.0810     2.6750 ha         1 8NR       0.137000
     29 H2          -0.4100     2.7980     1.8560 ha         1 8NR       0.147000
     30 H3          -0.8990     0.3750    -1.6590 ha         1 8NR       0.155000
     31 H4          -4.7060     0.7220     2.3180 ha         1 8NR       0.137000
     32 H5          -5.6230    -1.1280    -2.3960 hc         1 8NR       0.064200
     33 H6          -4.5130    -2.4420    -2.0960 hc         1 8NR       0.064200
     34 H7          -6.9580    -3.0120    -1.7050 hc         1 8NR       0.046200
     35 H8          -5.9490    -3.3220    -0.3050 hc         1 8NR       0.046200
     36 H9          -7.5820    -0.7730    -0.7310 hc         1 8NR       0.046200
     37 H10         -8.0630    -2.0960     0.3160 hc         1 8NR       0.046200
     38 H11         -6.1880    -1.7790     1.7830 hc         1 8NR       0.050700
     39 H12         -6.9070    -0.2050     1.5510 hc         1 8NR       0.050700
     40 H13          2.9320     2.7740    -1.6490 h1         1 8NR       0.069200
     41 H14          3.2630     1.1430    -2.2320 h1         1 8NR       0.069200
     42 H15          5.0810     1.8670    -0.7460 h1         1 8NR       0.067200
     43 H16          3.9340     2.2450     0.5370 h1         1 8NR       0.067200
     44 H17          2.6580     0.2610     1.5720 h1         1 8NR       0.067200
     45 H18          3.0010    -1.3420     0.9330 h1         1 8NR       0.067200
     46 H19          2.0110    -0.7630    -1.2310 h1         1 8NR       0.069200
     47 H20          0.8740    -0.4310     0.0700 h1         1 8NR       0.069200
     48 H21          7.1470    -2.1970     1.0490 h1         1 8NR       0.050200
     49 H22          6.6810    -2.6930    -0.5800 h1         1 8NR       0.050200
     50 H23          6.7590    -4.6410     0.9400 hc         1 8NR       0.046700
     51 H24          5.5770    -3.9000     2.0160 hc         1 8NR       0.046700
     52 H25          5.1080    -4.3910     0.3810 hc         1 8NR       0.046700
@<TRIPOS>BOND
     1     1     2 ar  
     2     1     6 ar  
     3     1    28 1   
     4     2     3 ar  
     5     2    29 1   
     6     3     4 ar  
     7     3    14 1   
     8     4     5 ar  
     9     4    30 1   
    10     5     6 ar  
    11     5    22 ar  
    12     6     9 ar  
    13     7     8 ar  
    14     7    10 1   
    15     7    22 ar  
    16     8     9 ar  
    17     8    13 1   
    18     9    31 1   
    19    10    11 1   
    20    10    32 1   
    21    10    33 1   
    22    11    12 1   
    23    11    34 1   
    24    11    35 1   
    25    12    13 1   
    26    12    36 1   
    27    12    37 1   
    28    13    38 1   
    29    13    39 1   
    30    14    23 1   
    31    14    25 2   
    32    15    16 1   
    33    15    23 1   
    34    15    40 1   
    35    15    41 1   
    36    16    24 1   
    37    16    42 1   
    38    16    43 1   
    39    17    18 1   
    40    17    24 1   
    41    17    44 1   
    42    17    45 1   
    43    18    23 1   
    44    18    46 1   
    45    18    47 1   
    46    19    24 1   
    47    19    26 2   
    48    19    27 1   
    49    20    21 1   
    50    20    27 1   
    51    20    48 1   
    52    20    49 1   
    53    21    50 1   
    54    21    51 1   
    55    21    52 1   
@<TRIPOS>SUBSTRUCTURE
     1 8NR         1 TEMP              0 ****  ****    0 ROOT
