@<TRIPOS>MOLECULE
8NR
   52    55     1     0     0
SMALL
No Charge or Current Charge


@<TRIPOS>ATOM
      1 CAA         -2.3280     1.6210     1.9530 ca         1 8NR      -0.095000
      2 CAB         -1.0470     2.0400     1.5610 ca         1 8NR      -0.076000
      3 CAC         -0.5020     1.6200     0.3300 ca         1 8NR      -0.137600
      4 CAD         -1.2880     0.8060    -0.5190 ca         1 8NR      -0.053000
      5 CAE         -2.5750     0.3760    -0.1440 ca         1 8NR       0.266000
      6 CAF         -3.0890     0.7910     1.1100 ca         1 8NR      -0.071000
      7 CAH         -4.5220    -0.8180    -0.5990 ca         1 8NR       0.380300
      8 CAI         -5.1100    -0.4450     0.6320 ca         1 8NR      -0.112300
      9 CAJ         -4.3720     0.3730     1.5030 ca         1 8NR      -0.074000
     10 CAK         -5.2600    -1.6950    -1.6130 c6         1 8NR      -0.133700
     11 CAL         -6.4700    -2.4450    -1.0070 c6         1 8NR      -0.074400
     12 CAM         -7.3260    -1.4900    -0.1500 c6         1 8NR      -0.074400
     13 CAN         -6.5060    -0.9330     1.0370 c6         1 8NR      -0.027100
     14 CAP          0.8710     2.1040    -0.0820 c          1 8NR       0.613700
     15 CAS          2.8620     1.8100    -1.6110 c6         1 8NR       0.072000
     16 CAT          4.1590     1.4250    -0.8630 c6         1 8NR       0.084000
     17 CAV          2.9680    -0.6780    -0.0700 c6         1 8NR       0.084000
     18 CAW          1.7010    -0.1880    -0.8170 c6         1 8NR       0.072000
     19 CAX          5.4980    -0.5360    -0.0650 c          1 8NR       0.651100
     20 CBA          6.5860    -2.4350     0.9290 c3         1 8NR       0.185600
     21 CBB          6.1820    -3.8050     1.4980 c3         1 8NR      -0.100100
     22 NAG         -3.2890    -0.4130    -0.9800 nb         1 8NR      -0.674000
     23 NAR          1.6540     1.2900    -0.9340 n          1 8NR      -0.401800
     24 NAU          4.2520    -0.0120    -0.4620 n          1 8NR      -0.411800
     25 OAQ          1.2610     3.2180     0.2460 o          1 8NR      -0.588100
     26 OAY          6.5560     0.0610    -0.2040 o          1 8NR      -0.545000
     27 OAZ          5.3850    -1.7840     0.4830 os         1 8NR      -0.465100
     28 H1          -2.7290     1.9460     2.9110 ha         1 8NR       0.119000
     29 H2          -0.4710     2.6850     2.2230 ha         1 8NR       0.129000
     30 H3          -0.9100     0.5100    -1.4940 ha         1 8NR       0.137000
     31 H4          -4.7870     0.6770     2.4610 ha         1 8NR       0.119000
     32 H5          -5.6060    -1.0580    -2.4380 hc         1 8NR       0.064200
     33 H6          -4.5660    -2.4220    -2.0580 hc         1 8NR       0.064200
     34 H7          -7.0790    -2.8850    -1.8090 hc         1 8NR       0.046200
     35 H8          -6.1170    -3.2810    -0.3870 hc         1 8NR       0.046200
     36 H9          -7.6880    -0.6590    -0.7730 hc         1 8NR       0.046200
     37 H10         -8.2170    -2.0110     0.2250 hc         1 8NR       0.046200
     38 H11         -6.3970    -1.7160     1.8000 hc         1 8NR       0.050700
     39 H12         -7.0660    -0.1170     1.5160 hc         1 8NR       0.050700
     40 H13          2.8080     2.9020    -1.7210 h1         1 8NR       0.069200
     41 H14          2.9020     1.3910    -2.6270 h1         1 8NR       0.069200
     42 H15          5.0170     1.6880    -1.4960 h1         1 8NR       0.067200
     43 H16          4.2310     2.0380     0.0470 h1         1 8NR       0.067200
     44 H17          2.8190    -0.5160     1.0070 h1         1 8NR       0.067200
     45 H18          3.0480    -1.7640    -0.2210 h1         1 8NR       0.067200
     46 H19          1.6940    -0.6210    -1.8280 h1         1 8NR       0.069200
     47 H20          0.8230    -0.5820    -0.2910 h1         1 8NR       0.069200
     48 H21          7.0840    -1.8460     1.7110 h1         1 8NR       0.050200
     49 H22          7.2880    -2.5760     0.0970 h1         1 8NR       0.050200
     50 H23          7.0680    -4.3430     1.8540 hc         1 8NR       0.046700
     51 H24          5.4910    -3.6850     2.3400 hc         1 8NR       0.046700
     52 H25          5.6950    -4.4140     0.7280 hc         1 8NR       0.046700
@<TRIPOS>BOND
     1     1     2 ar  
     2     1     6 ar  
     3     1    28 1   
     4     2     3 ar  
     5     2    29 1   
     6     3     4 ar  
     7     3    14 1   
     8     4     5 ar  
     9     4    30 1   
    10     5     6 ar  
    11     5    22 ar  
    12     6     9 ar  
    13     7     8 ar  
    14     7    10 1   
    15     7    22 ar  
    16     8     9 ar  
    17     8    13 1   
    18     9    31 1   
    19    10    11 1   
    20    10    32 1   
    21    10    33 1   
    22    11    12 1   
    23    11    34 1   
    24    11    35 1   
    25    12    13 1   
    26    12    36 1   
    27    12    37 1   
    28    13    38 1   
    29    13    39 1   
    30    14    23 1   
    31    14    25 2   
    32    15    16 1   
    33    15    23 1   
    34    15    40 1   
    35    15    41 1   
    36    16    24 1   
    37    16    42 1   
    38    16    43 1   
    39    17    18 1   
    40    17    24 1   
    41    17    44 1   
    42    17    45 1   
    43    18    23 1   
    44    18    46 1   
    45    18    47 1   
    46    19    24 1   
    47    19    26 2   
    48    19    27 1   
    49    20    21 1   
    50    20    27 1   
    51    20    48 1   
    52    20    49 1   
    53    21    50 1   
    54    21    51 1   
    55    21    52 1   
@<TRIPOS>SUBSTRUCTURE
     1 8NR         1 TEMP              0 ****  ****    0 ROOT
