@<TRIPOS>MOLECULE
8NS
   51    55     1     0     0
SMALL
bcc


@<TRIPOS>ATOM
      1 N1          -4.4020    -0.8920     1.3550 na         1 8NS      -0.125100
      2 C4           1.3010     2.1860     0.8610 ca         1 8NS      -0.126000
      3 C5           0.1000     1.4960     0.7110 ca         1 8NS       0.180600
      4 C7          -1.0690     3.6030    -0.9660 cx         1 8NS      -0.134700
      5 C8          -1.5450     3.8170    -2.3710 cx         1 8NS      -0.128400
      6 C10         -1.8500     1.6530     2.1560 c3         1 8NS       0.278100
      7 C13         -3.3900    -1.2820     0.5330 cc         1 8NS      -0.200900
      8 C17         -1.1100    -0.6180    -0.0010 cd         1 8NS      -0.071400
      9 C20         -2.3110    -0.4380     0.7490 cd         1 8NS      -0.033800
     10 C3           2.5200     1.6150     0.5520 ca         1 8NS      -0.042000
     11 C19          1.3540    -0.4160    -0.0380 ca         1 8NS      -0.041000
     12 C12         -3.9980     0.1890     2.0670 cc         1 8NS      -0.103300
     13 C18          0.1130     0.1720     0.2280 ca         1 8NS      -0.051800
     14 C11         -2.7020     0.5020     1.7300 cd         1 8NS      -0.204300
     15 C2           2.5270     0.3000     0.1090 ca         1 8NS      -0.269500
     16 C16         -1.1480    -1.6060    -0.9370 cc         1 8NS       0.002600
     17 C14         -3.4130    -2.3330    -0.4300 c          1 8NS       0.728100
     18 C9          -0.3060     3.0160    -2.1140 cx         1 8NS      -0.128400
     19 C            6.0050    -1.6930     1.2800 c3         1 8NS      -0.071100
     20 C1           4.6380    -1.0380     1.3870 c3         1 8NS      -0.181600
     21 N           -1.0750     2.2130     1.0600 nh         1 8NS      -0.666000
     22 N2          -2.2320    -2.4140    -1.1500 n          1 8NS      -0.342000
     23 O2          -4.3550    -3.0910    -0.6470 o          1 8NS      -0.641500
     24 O            3.8340    -1.6710    -1.0540 o          1 8NS      -0.595800
     25 O1           5.0120     0.5230    -0.7140 o          1 8NS      -0.595800
     26 S            4.0770    -0.4900    -0.2240 sy         1 8NS       1.072300
     27 H           -5.3130    -1.3170     1.4050 hn         1 8NS       0.318700
     28 H7           1.2590     3.2040     1.2220 ha         1 8NS       0.150000
     29 H8          -2.6990     3.2720     0.3710 h1         1 8NS       0.042200
     30 H9          -2.3160     1.9000    -0.6560 h1         1 8NS       0.042200
     31 H10         -0.6190     4.4590    -0.4740 hc         1 8NS       0.084700
     32 H12         -2.4370     3.2890    -2.6880 hc         1 8NS       0.071950
     33 H11         -1.4400     4.8060    -2.7990 hc         1 8NS       0.071950
     34 H16         -2.4740     2.4450     2.5800 h1         1 8NS       0.058700
     35 H15         -1.1520     1.3640     2.9460 h1         1 8NS       0.058700
     36 H20         -2.2690    -4.4270    -1.7640 h1         1 8NS       0.054700
     37 H19         -2.9640    -3.2830    -2.9210 h1         1 8NS       0.054700
     38 H18         -1.2140    -3.3630    -2.6980 h1         1 8NS       0.054700
     39 H6           3.4360     2.1800     0.6680 ha         1 8NS       0.155000
     40 H22          1.4000    -1.4510    -0.3490 ha         1 8NS       0.150000
     41 H17         -4.6650     0.6740     2.7630 h4         1 8NS       0.169000
     42 H21         -0.3110    -1.8050    -1.5910 h4         1 8NS       0.156000
     43 H13          0.6520     3.4500    -2.3690 hc         1 8NS       0.071950
     44 H14         -0.3570     1.9430    -2.2550 hc         1 8NS       0.071950
     45 H1           5.9820    -2.5710     0.6370 hc         1 8NS       0.053700
     46 H2           6.7530    -0.9990     0.9020 hc         1 8NS       0.053700
     47 H3           6.3190    -2.0140     2.2720 hc         1 8NS       0.053700
     48 H4           3.8830    -1.7270     1.7670 h1         1 8NS       0.094200
     49 H5           4.6570    -0.1580     2.0320 h1         1 8NS       0.094200
     50 C6          -1.8660     2.7080    -0.0590 c3         1 8NS       0.226800
     51 C15         -2.1710    -3.4310    -2.1910 c3         1 8NS       0.080300
@<TRIPOS>BOND
     1     1     7 1   
     2     1    12 1   
     3     1    27 1   
     4     2     3 ar  
     5     2    10 ar  
     6     2    28 1   
     7     3    13 ar  
     8     3    21 1   
     9     4     5 1   
    10     4    18 1   
    11     4    31 1   
    12     4    50 1   
    13     5    18 1   
    14     5    32 1   
    15     5    33 1   
    16     6    14 1   
    17     6    21 1   
    18     6    34 1   
    19     6    35 1   
    20     7     9 2   
    21     7    17 1   
    22     8     9 1   
    23     8    13 1   
    24     8    16 2   
    25     9    14 1   
    26    10    15 ar  
    27    10    39 1   
    28    11    13 ar  
    29    11    15 ar  
    30    11    40 1   
    31    12    14 2   
    32    12    41 1   
    33    15    26 1   
    34    16    22 1   
    35    16    42 1   
    36    17    22 1   
    37    17    23 2   
    38    18    43 1   
    39    18    44 1   
    40    19    20 1   
    41    19    45 1   
    42    19    46 1   
    43    19    47 1   
    44    20    26 1   
    45    20    48 1   
    46    20    49 1   
    47    21    50 1   
    48    22    51 1   
    49    24    26 2   
    50    25    26 2   
    51    29    50 1   
    52    30    50 1   
    53    36    51 1   
    54    37    51 1   
    55    38    51 1   
@<TRIPOS>SUBSTRUCTURE
     1 8NS         1 TEMP              0 ****  ****    0 ROOT
