@<TRIPOS>MOLECULE
8NS
   51    55     1     0     0
SMALL
No Charge or Current Charge


@<TRIPOS>ATOM
      1 N1          -4.3710    -0.7000     0.8940 na         1 8NS      -0.074000
      2 C4           1.4610     2.3100     1.0660 ca         1 8NS      -0.108000
      3 C5           0.2710     1.6040     0.8150 ca         1 8NS       0.319000
      4 C7          -1.3390     3.0570    -1.2360 cx         1 8NS      -0.134700
      5 C8          -2.3190     3.6540    -2.2210 cx         1 8NS      -0.128400
      6 C10         -1.8360     1.6670     2.0940 c3         1 8NS       0.278100
      7 C13         -3.2800    -1.1390     0.1440 cc         1 8NS      -0.251600
      8 C17         -0.9120    -0.5030    -0.0970 cd         1 8NS      -0.071400
      9 C20         -2.2310    -0.3370     0.4940 cd         1 8NS      -0.033800
     10 C3           2.7110     1.7450     0.7980 ca         1 8NS      -0.024000
     11 C19          1.5950    -0.2670     0.0080 ca         1 8NS      -0.023000
     12 C12         -3.9970     0.3680     1.7100 cc         1 8NS      -0.136000
     13 C18          0.3130     0.2900     0.2610 ca         1 8NS      -0.051800
     14 C11         -2.6650     0.5970     1.4640 cd         1 8NS      -0.204300
     15 C2           2.7820     0.4480     0.2690 ca         1 8NS      -0.269500
     16 C16         -0.8250    -1.5540    -1.0110 cc         1 8NS      -0.047400
     17 C14         -3.1860    -2.2260    -0.8350 c          1 8NS       0.585600
     18 C9          -2.3500     2.1720    -1.9290 cx         1 8NS      -0.128400
     19 C            6.0990    -1.9280     1.4800 c3         1 8NS      -0.071100
     20 C1           4.7460    -1.1760     1.4960 c3         1 8NS      -0.292400
     21 N           -0.9280     2.2680     1.1210 nh         1 8NS      -0.804400
     22 N2          -1.8990    -2.3810    -1.3830 n          1 8NS      -0.275000
     23 O2          -4.1390    -2.9330    -1.1410 o          1 8NS      -0.566000
     24 O            4.2230    -1.3430    -1.0870 o          1 8NS      -0.525000
     25 O1           5.3950     0.7500    -0.1920 o          1 8NS      -0.525000
     26 S            4.3890    -0.3120    -0.0530 sy         1 8NS       1.041500
     27 H           -5.3040    -1.1030     0.8530 hn         1 8NS       0.369000
     28 H7           1.4080     3.3120     1.4830 ha         1 8NS       0.132000
     29 H8          -0.8920     4.2790     0.4720 h1         1 8NS       0.042200
     30 H9          -2.4980     3.5500     0.5000 h1         1 8NS       0.042200
     31 H10         -0.3080     2.9750    -1.5710 hc         1 8NS       0.084700
     32 H12         -3.1310     4.2630    -1.8320 hc         1 8NS       0.071950
     33 H11         -1.9350     3.9730    -3.1880 hc         1 8NS       0.071950
     34 H16         -2.4940     2.4340     2.5280 h1         1 8NS       0.058700
     35 H15         -1.2630     1.2320     2.9250 h1         1 8NS       0.058700
     36 H20         -1.9740    -4.4250    -1.9390 h1         1 8NS       0.054700
     37 H19         -2.3520    -3.2720    -3.2520 h1         1 8NS       0.054700
     38 H18         -0.6650    -3.5010    -2.7200 h1         1 8NS       0.054700
     39 H6           3.6150     2.3150     1.0110 ha         1 8NS       0.137000
     40 H22          1.6900    -1.2810    -0.3670 ha         1 8NS       0.132000
     41 H17         -4.6920     0.8680     2.3740 h4         1 8NS       0.151000
     42 H21          0.0680    -1.8160    -1.5640 h4         1 8NS       0.206000
     43 H13         -1.9820     1.4900    -2.6920 hc         1 8NS       0.071950
     44 H14         -3.1780     1.7880    -1.3390 hc         1 8NS       0.071950
     45 H1           6.1170    -2.6880     0.6890 hc         1 8NS       0.053700
     46 H2           6.9330    -1.2340     1.3120 hc         1 8NS       0.053700
     47 H3           6.2660    -2.4330     2.4400 hc         1 8NS       0.053700
     48 H4           3.9230    -1.8790     1.6660 h1         1 8NS       0.094200
     49 H5           4.7400    -0.4220     2.2900 h1         1 8NS       0.094200
     50 C6          -1.4430     3.3530     0.2590 c3         1 8NS       0.226800
     51 C15         -1.7070    -3.4570    -2.3830 c3         1 8NS       0.080300
@<TRIPOS>BOND
     1     1     7 1   
     2     1    12 1   
     3     1    27 1   
     4     2     3 ar  
     5     2    10 ar  
     6     2    28 1   
     7     3    13 ar  
     8     3    21 1   
     9     4     5 1   
    10     4    18 1   
    11     4    31 1   
    12     4    50 1   
    13     5    18 1   
    14     5    32 1   
    15     5    33 1   
    16     6    14 1   
    17     6    21 1   
    18     6    34 1   
    19     6    35 1   
    20     7     9 2   
    21     7    17 1   
    22     8     9 1   
    23     8    13 1   
    24     8    16 2   
    25     9    14 1   
    26    10    15 ar  
    27    10    39 1   
    28    11    13 ar  
    29    11    15 ar  
    30    11    40 1   
    31    12    14 2   
    32    12    41 1   
    33    15    26 1   
    34    16    22 1   
    35    16    42 1   
    36    17    22 1   
    37    17    23 2   
    38    18    43 1   
    39    18    44 1   
    40    19    20 1   
    41    19    45 1   
    42    19    46 1   
    43    19    47 1   
    44    20    26 1   
    45    20    48 1   
    46    20    49 1   
    47    21    50 1   
    48    22    51 1   
    49    24    26 2   
    50    25    26 2   
    51    29    50 1   
    52    30    50 1   
    53    36    51 1   
    54    37    51 1   
    55    38    51 1   
@<TRIPOS>SUBSTRUCTURE
     1 8NS         1 TEMP              0 ****  ****    0 ROOT
