@<TRIPOS>MOLECULE
8NT
   39    39     1     0     0
SMALL
No Charge or Current Charge


@<TRIPOS>ATOM
      1 C1           3.9510     0.8260     0.1850 c3         1 8NT      -0.060400
      2 C2           5.3350     0.3240    -0.2960 c5         1 8NT       0.086300
      3 C10         -0.9680     1.7670    -0.9030 c          1 8NT       0.592100
      4 C13         -3.2620     1.1280    -0.1100 c3         1 8NT       0.100000
      5 C14         -4.0770    -0.1490     0.1690 c3         1 8NT      -0.051400
      6 C15         -5.4980     0.1580     0.7090 c3         1 8NT      -0.355400
      7 C5           7.7270    -0.0310     0.0270 c5         1 8NT       0.076600
      8 C6           6.4670     0.5140     0.7510 c5         1 8NT      -0.090400
      9 C7           2.8290     0.7400    -0.8770 c3         1 8NT      -0.080400
     10 C8           1.4790     1.2970    -0.3740 c3         1 8NT      -0.065400
     11 C9           0.3580     1.2110    -1.4370 c3         1 8NT      -0.159400
     12 N1          -1.9250     0.8220    -0.6180 ns         1 8NT      -0.496900
     13 O1          -1.1740     2.9650    -0.7690 o          1 8NT      -0.628100
     14 O2          -6.5850    -1.9930    -0.2500 o          1 8NT      -0.696200
     15 O3          -5.7150    -2.0420     2.0660 o          1 8NT      -0.696200
     16 O4          -7.7650    -0.7640     1.5410 o          1 8NT      -0.696200
     17 S1           5.2870    -1.5050    -0.6310 ss         1 8NT      -0.241000
     18 S2           7.3520    -1.7950    -0.4190 ss         1 8NT      -0.286000
     19 S3          -6.4940    -1.3170     1.0520 s6         1 8NT       1.321600
     20 H1           3.6450     0.2620     1.0750 hc         1 8NT       0.053200
     21 H2           4.0450     1.8720     0.5020 hc         1 8NT       0.053200
     22 H3           5.5870     0.8490    -1.2280 h1         1 8NT       0.081700
     23 H4          -3.7890     1.7450    -0.8510 h1         1 8NT       0.045200
     24 H5          -3.1640     1.7100     0.8160 h1         1 8NT       0.045200
     25 H6          -4.1540    -0.7320    -0.7580 hc         1 8NT       0.051700
     26 H7          -3.5330    -0.7660     0.8950 hc         1 8NT       0.051700
     27 H8          -5.4370     0.7120     1.6510 h1         1 8NT       0.067700
     28 H9          -6.0640     0.7470    -0.0200 h1         1 8NT       0.067700
     29 H10          7.9400     0.5400    -0.8870 h1         1 8NT       0.075200
     30 H11          8.6200     0.0110     0.6650 h1         1 8NT       0.075200
     31 H12          6.5930     1.5690     1.0210 hc         1 8NT       0.070200
     32 H13          6.2640    -0.0340     1.6790 hc         1 8NT       0.070200
     33 H14          3.1380     1.2970    -1.7710 hc         1 8NT       0.046200
     34 H15          2.6920    -0.3040    -1.1830 hc         1 8NT       0.046200
     35 H16          1.1700     0.7410     0.5210 hc         1 8NT       0.052700
     36 H17          1.6090     2.3430    -0.0710 hc         1 8NT       0.052700
     37 H18          0.2340     0.1600    -1.7250 hc         1 8NT       0.053200
     38 H19          0.6600     1.8010    -2.3090 hc         1 8NT       0.053200
     39 H20         -1.6710    -0.1470    -0.7680 hn         1 8NT       0.312500
@<TRIPOS>BOND
     1     1     2 1   
     2     1     9 1   
     3     1    20 1   
     4     1    21 1   
     5     2     8 1   
     6     2    17 1   
     7     2    22 1   
     8     3    11 1   
     9     3    12 1   
    10     3    13 2   
    11     4     5 1   
    12     4    12 1   
    13     4    23 1   
    14     4    24 1   
    15     5     6 1   
    16     5    25 1   
    17     5    26 1   
    18     6    19 1   
    19     6    27 1   
    20     6    28 1   
    21     7     8 1   
    22     7    18 1   
    23     7    29 1   
    24     7    30 1   
    25     8    31 1   
    26     8    32 1   
    27     9    10 1   
    28     9    33 1   
    29     9    34 1   
    30    10    11 1   
    31    10    35 1   
    32    10    36 1   
    33    11    37 1   
    34    11    38 1   
    35    12    39 1   
    36    14    19 1   
    37    15    19 1   
    38    16    19 1   
    39    17    18 1   
@<TRIPOS>SUBSTRUCTURE
     1 8NT         1 TEMP              0 ****  ****    0 ROOT
