@<TRIPOS>MOLECULE
8NT
   39    39     1     0     0
SMALL
bcc


@<TRIPOS>ATOM
      1 C1           4.1330     0.9700     0.1190 c3         1 8NT      -0.060400
      2 C2           5.4330     0.4500    -0.4730 c5         1 8NT       0.038400
      3 C10         -0.9000     1.3320    -0.3250 c          1 8NT       0.659100
      4 C13         -3.2730     0.9840     0.1870 c3         1 8NT       0.100000
      5 C14         -4.2900    -0.1410     0.0730 c3         1 8NT      -0.051400
      6 C15         -5.6690     0.3230     0.5070 c3         1 8NT      -0.244600
      7 C5           7.9120     0.2020    -0.2510 c5         1 8NT       0.028700
      8 C6           6.6650     0.8610     0.3200 c5         1 8NT      -0.090400
      9 C7           2.8840     0.5210    -0.6290 c3         1 8NT      -0.080400
     10 C8           1.6170     1.1680    -0.0850 c3         1 8NT      -0.065400
     11 C9           0.3730     0.6750    -0.8140 c3         1 8NT      -0.159400
     12 N1          -1.9660     0.5240    -0.2330 ns         1 8NT      -0.563900
     13 O1          -0.9580     2.5260    -0.0540 o          1 8NT      -0.628100
     14 O2          -6.9050    -1.4850    -0.9380 o          1 8NT      -0.696200
     15 O3          -6.4290    -2.0130     1.4200 o          1 8NT      -0.696200
     16 O4          -8.1670    -0.3590     0.8560 o          1 8NT      -0.696200
     17 S1           5.4440    -1.3810    -0.4490 ss         1 8NT      -0.193100
     18 S2           7.5030    -1.5040    -0.8140 ss         1 8NT      -0.238100
     19 S3          -6.8960    -0.9960     0.4560 s6         1 8NT       1.210800
     20 H1           4.0660     0.6760     1.1710 hc         1 8NT       0.053200
     21 H2           4.1880     2.0630     0.1050 hc         1 8NT       0.053200
     22 H3           5.5280     0.7750    -1.5130 h1         1 8NT       0.081700
     23 H4          -3.5830     1.8310    -0.4310 h1         1 8NT       0.045200
     24 H5          -3.2310     1.3440     1.2190 h1         1 8NT       0.045200
     25 H6          -4.3300    -0.4940    -0.9600 hc         1 8NT       0.051700
     26 H7          -3.9730    -0.9830     0.6930 hc         1 8NT       0.051700
     27 H8          -5.6510     0.7010     1.5320 h1         1 8NT       0.067700
     28 H9          -6.0310     1.1280    -0.1360 h1         1 8NT       0.067700
     29 H10          8.2790     0.7430    -1.1200 h1         1 8NT       0.075200
     30 H11          8.7090     0.1430     0.4880 h1         1 8NT       0.075200
     31 H12          6.7870     1.9470     0.2850 hc         1 8NT       0.070200
     32 H13          6.5290     0.5760     1.3650 hc         1 8NT       0.070200
     33 H14          2.9890     0.7580    -1.6920 hc         1 8NT       0.046200
     34 H15          2.7840    -0.5690    -0.5680 hc         1 8NT       0.046200
     35 H16          1.5270     0.9510     0.9840 hc         1 8NT       0.052700
     36 H17          1.6930     2.2540    -0.1760 hc         1 8NT       0.052700
     37 H18          0.3010    -0.4120    -0.7350 hc         1 8NT       0.053200
     38 H19          0.4660     0.8970    -1.8820 hc         1 8NT       0.053200
     39 H20         -1.8500    -0.4560    -0.4330 hn         1 8NT       0.312500
@<TRIPOS>BOND
     1     1     2 1   
     2     1     9 1   
     3     1    20 1   
     4     1    21 1   
     5     2     8 1   
     6     2    17 1   
     7     2    22 1   
     8     3    11 1   
     9     3    12 1   
    10     3    13 2   
    11     4     5 1   
    12     4    12 1   
    13     4    23 1   
    14     4    24 1   
    15     5     6 1   
    16     5    25 1   
    17     5    26 1   
    18     6    19 1   
    19     6    27 1   
    20     6    28 1   
    21     7     8 1   
    22     7    18 1   
    23     7    29 1   
    24     7    30 1   
    25     8    31 1   
    26     8    32 1   
    27     9    10 1   
    28     9    33 1   
    29     9    34 1   
    30    10    11 1   
    31    10    35 1   
    32    10    36 1   
    33    11    37 1   
    34    11    38 1   
    35    12    39 1   
    36    14    19 1   
    37    15    19 1   
    38    16    19 1   
    39    17    18 1   
@<TRIPOS>SUBSTRUCTURE
     1 8NT         1 TEMP              0 ****  ****    0 ROOT
