@<TRIPOS>MOLECULE
8NU
   57    61     1     0     0
SMALL
No Charge or Current Charge


@<TRIPOS>ATOM
      1 C01         -3.4090    -3.0170     0.3830 c3         1 8NU      -0.050900
      2 C02         -4.2360    -1.7580     0.3020 cc         1 8NU       0.203400
      3 C03         -3.7240    -0.4870     0.4690 cd         1 8NU      -0.269400
      4 C04         -2.2560    -0.2040     0.7670 c3         1 8NU      -0.011200
      5 C05         -1.4420     0.0900    -0.5170 c3         1 8NU       0.169800
      6 C07          0.8050    -0.6140     0.3060 c6         1 8NU       0.165800
      7 C08          2.2500    -0.1420     0.5990 c6         1 8NU      -0.070900
      8 C09          2.9340     0.4080    -0.6810 c6         1 8NU      -0.083000
      9 C10          2.0350     1.5150    -1.2980 c6         1 8NU      -0.070900
     10 C11          0.6020     0.9880    -1.5480 c6         1 8NU       0.165800
     11 C12          4.3390     0.8900    -0.3670 cc         1 8NU       0.397900
     12 C15          6.5030     0.8940     0.1790 ca         1 8NU       0.104100
     13 C16          5.4690     0.0540    -0.0850 ca         1 8NU      -0.268900
     14 C17          5.6130    -1.3410    -0.0610 ca         1 8NU      -0.005000
     15 C18          6.8890    -1.8550     0.2570 ca         1 8NU      -0.187000
     16 C19          7.9620    -0.9770     0.5340 ca         1 8NU       0.215000
     17 C21          7.7790     0.4190     0.4960 ca         1 8NU      -0.166000
     18 C22         -4.5940     0.7020     0.3520 c          1 8NU       0.553200
     19 C25         -6.8810     1.5820    -0.0240 c6         1 8NU       0.088000
     20 C26         -8.2820     1.2330    -0.5670 c6         1 8NU      -0.096400
     21 C27         -8.7900    -0.0700     0.0590 c6         1 8NU      -0.079400
     22 C28         -7.8240    -1.2110    -0.3180 c6         1 8NU      -0.121700
     23 C29         -6.3650    -0.8860    -0.0430 cd         1 8NU       0.515900
     24 F20          9.1780    -1.4830     0.8360 f          1 8NU      -0.170000
     25 N06         -0.0220     0.4720    -0.2980 n3         1 8NU      -0.712600
     26 N13          4.7000     2.1770    -0.2690 nd         1 8NU      -0.285700
     27 N24         -5.9300     0.4320     0.0610 n          1 8NU      -0.306300
     28 N30         -5.5730    -1.9500     0.0520 nc         1 8NU      -0.668300
     29 O14          6.1150     2.1990     0.0840 os         1 8NU      -0.112100
     30 O23         -4.1870     1.8480     0.4920 o          1 8NU      -0.552000
     31 H1          -3.9800    -3.9020     0.0770 hc         1 8NU       0.054700
     32 H2          -2.5310    -2.9530    -0.2700 hc         1 8NU       0.054700
     33 H3          -3.0600    -3.1870     1.4080 hc         1 8NU       0.054700
     34 H4          -2.1520     0.6470     1.4500 hc         1 8NU       0.059700
     35 H5          -1.8100    -1.0500     1.2990 hc         1 8NU       0.059700
     36 H6          -1.4930    -0.7910    -1.1720 h1         1 8NU       0.034200
     37 H7          -1.9530     0.9060    -1.0460 h1         1 8NU       0.034200
     38 H8           0.8400    -1.4830    -0.3670 h1         1 8NU       0.031450
     39 H9           0.3690    -0.9570     1.2540 h1         1 8NU       0.031450
     40 H10          2.2270     0.6360     1.3750 hc         1 8NU       0.058450
     41 H11          2.8290    -0.9780     1.0140 hc         1 8NU       0.058450
     42 H12          3.0070    -0.4110    -1.4090 hc         1 8NU       0.058700
     43 H13          1.9800     2.3850    -0.6280 hc         1 8NU       0.058450
     44 H14          2.4650     1.8710    -2.2440 hc         1 8NU       0.058450
     45 H15         -0.0020     1.8070    -1.9650 h1         1 8NU       0.031450
     46 H16          0.6390     0.1950    -2.3100 h1         1 8NU       0.031450
     47 H17          4.7790    -2.0060    -0.2800 ha         1 8NU       0.127000
     48 H18          7.0500    -2.9290     0.2890 ha         1 8NU       0.138000
     49 H19          8.5990     1.1000     0.7050 ha         1 8NU       0.156000
     50 H20         -6.4470     2.3740    -0.6500 h1         1 8NU       0.070700
     51 H21         -6.9930     2.0000     0.9870 h1         1 8NU       0.070700
     52 H22         -8.9790     2.0570    -0.3600 hc         1 8NU       0.056700
     53 H23         -8.2390     1.1280    -1.6610 hc         1 8NU       0.056700
     54 H24         -8.8490     0.0330     1.1520 hc         1 8NU       0.055700
     55 H25         -9.8050    -0.2980    -0.2960 hc         1 8NU       0.055700
     56 H26         -8.1200    -2.1200     0.2220 hc         1 8NU       0.076700
     57 H27         -7.9400    -1.4460    -1.3850 hc         1 8NU       0.076700
@<TRIPOS>BOND
     1     1     2 1   
     2     1    31 1   
     3     1    32 1   
     4     1    33 1   
     5     2     3 2   
     6     2    28 1   
     7     3     4 1   
     8     3    18 1   
     9     4     5 1   
    10     4    34 1   
    11     4    35 1   
    12     5    25 1   
    13     5    36 1   
    14     5    37 1   
    15     6     7 1   
    16     6    25 1   
    17     6    38 1   
    18     6    39 1   
    19     7     8 1   
    20     7    40 1   
    21     7    41 1   
    22     8     9 1   
    23     8    11 1   
    24     8    42 1   
    25     9    10 1   
    26     9    43 1   
    27     9    44 1   
    28    10    25 1   
    29    10    45 1   
    30    10    46 1   
    31    11    13 1   
    32    11    26 2   
    33    12    13 ar  
    34    12    17 ar  
    35    12    29 1   
    36    13    14 ar  
    37    14    15 ar  
    38    14    47 1   
    39    15    16 ar  
    40    15    48 1   
    41    16    17 ar  
    42    16    24 1   
    43    17    49 1   
    44    18    27 1   
    45    18    30 2   
    46    19    20 1   
    47    19    27 1   
    48    19    50 1   
    49    19    51 1   
    50    20    21 1   
    51    20    52 1   
    52    20    53 1   
    53    21    22 1   
    54    21    54 1   
    55    21    55 1   
    56    22    23 1   
    57    22    56 1   
    58    22    57 1   
    59    23    27 1   
    60    23    28 2   
    61    26    29 1   
@<TRIPOS>SUBSTRUCTURE
     1 8NU         1 TEMP              0 ****  ****    0 ROOT
