@<TRIPOS>MOLECULE
8NU
   57    61     1     0     0
SMALL
abcg2


@<TRIPOS>ATOM
      1 C01         -3.2690    -2.8550     0.5550 c3         1 8NU      -0.050900
      2 C02         -4.1490    -1.6510     0.4080 cc         1 8NU       0.203400
      3 C03         -3.6670    -0.3800     0.5470 cd         1 8NU      -0.269400
      4 C04         -2.2300    -0.0730     0.8370 c3         1 8NU      -0.011200
      5 C05         -1.4450     0.1900    -0.4500 c3         1 8NU       0.169800
      6 C07          0.7190    -0.5990     0.2590 c6         1 8NU       0.165800
      7 C08          2.1530    -0.2070     0.5770 c6         1 8NU      -0.070900
      8 C09          2.8240     0.4230    -0.6480 c6         1 8NU      -0.083000
      9 C10          1.9670     1.5780    -1.1500 c6         1 8NU      -0.070900
     10 C11          0.5460     1.1040    -1.4090 c6         1 8NU       0.165800
     11 C12          4.2310     0.8050    -0.3350 cc         1 8NU       0.397900
     12 C15          6.3890     0.7850     0.1520 ca         1 8NU       0.104100
     13 C16          5.3400    -0.0780    -0.1250 ca         1 8NU      -0.268900
     14 C17          5.5550    -1.4560    -0.1480 ca         1 8NU      -0.005000
     15 C18          6.8280    -1.9190     0.1110 ca         1 8NU      -0.187000
     16 C19          7.8520    -1.0060     0.3870 ca         1 8NU       0.215000
     17 C21          7.6830     0.3600     0.4190 ca         1 8NU      -0.166000
     18 C22         -4.5720     0.7210     0.3820 c          1 8NU       0.553200
     19 C25         -6.8230     1.5070    -0.0940 c6         1 8NU       0.088000
     20 C26         -8.1340     1.1120    -0.7380 c6         1 8NU      -0.096400
     21 C27         -8.6880    -0.1370    -0.0840 c6         1 8NU      -0.079400
     22 C28         -7.7060    -1.2680    -0.3220 c6         1 8NU      -0.121700
     23 C29         -6.2790    -0.9200    -0.0110 cd         1 8NU       0.515900
     24 F20          9.0720    -1.4980     0.6350 f          1 8NU      -0.170000
     25 N06         -0.0550     0.5350    -0.2150 n3         1 8NU      -0.712600
     26 N13          4.6050     2.0360    -0.1980 nd         1 8NU      -0.285700
     27 N24         -5.8940     0.3750     0.0700 n          1 8NU      -0.306300
     28 N30         -5.4540    -1.9100     0.1470 nc         1 8NU      -0.668300
     29 O14          5.9500     2.0480     0.1100 os         1 8NU      -0.112100
     30 O23         -4.2650     1.9020     0.4950 o          1 8NU      -0.552000
     31 H1          -3.8270    -3.7630     0.3370 hc         1 8NU       0.054700
     32 H2          -2.4100    -2.8110    -0.1160 hc         1 8NU       0.054700
     33 H3          -2.8750    -2.9350     1.5700 hc         1 8NU       0.054700
     34 H4          -2.1550     0.8080     1.4770 hc         1 8NU       0.059700
     35 H5          -1.7890    -0.9000     1.3950 hc         1 8NU       0.059700
     36 H6          -1.5370    -0.6810    -1.1230 h1         1 8NU       0.034200
     37 H7          -1.9150     1.0290    -0.9680 h1         1 8NU       0.034200
     38 H8           0.7210    -1.4200    -0.4820 h1         1 8NU       0.031450
     39 H9           0.2630    -0.9980     1.1660 h1         1 8NU       0.031450
     40 H10          2.1650     0.5080     1.4050 hc         1 8NU       0.058450
     41 H11          2.6980    -1.0940     0.9070 hc         1 8NU       0.058450
     42 H12          2.8700    -0.3430    -1.4330 hc         1 8NU       0.058700
     43 H13          1.9500     2.3830    -0.4110 hc         1 8NU       0.058450
     44 H14          2.3810     1.9930    -2.0710 hc         1 8NU       0.058450
     45 H15         -0.0610     1.9520    -1.7350 h1         1 8NU       0.031450
     46 H16          0.5510     0.3790    -2.2430 h1         1 8NU       0.031450
     47 H17          4.7540    -2.1510    -0.3640 ha         1 8NU       0.127000
     48 H18          7.0470    -2.9780     0.1050 ha         1 8NU       0.138000
     49 H19          8.4980     1.0380     0.6330 ha         1 8NU       0.156000
     50 H20         -6.3190     2.2640    -0.6890 h1         1 8NU       0.070700
     51 H21         -7.0020     1.9350     0.8950 h1         1 8NU       0.070700
     52 H22         -8.8180     1.9560    -0.6410 hc         1 8NU       0.056700
     53 H23         -7.9930     0.9400    -1.8090 hc         1 8NU       0.056700
     54 H24         -8.8290     0.0290     0.9880 hc         1 8NU       0.055700
     55 H25         -9.6620    -0.4030    -0.4960 hc         1 8NU       0.055700
     56 H26         -7.9580    -2.1580     0.2540 hc         1 8NU       0.076700
     57 H27         -7.7420    -1.5660    -1.3740 hc         1 8NU       0.076700
@<TRIPOS>BOND
     1     1     2 1   
     2     1    31 1   
     3     1    32 1   
     4     1    33 1   
     5     2     3 2   
     6     2    28 1   
     7     3     4 1   
     8     3    18 1   
     9     4     5 1   
    10     4    34 1   
    11     4    35 1   
    12     5    25 1   
    13     5    36 1   
    14     5    37 1   
    15     6     7 1   
    16     6    25 1   
    17     6    38 1   
    18     6    39 1   
    19     7     8 1   
    20     7    40 1   
    21     7    41 1   
    22     8     9 1   
    23     8    11 1   
    24     8    42 1   
    25     9    10 1   
    26     9    43 1   
    27     9    44 1   
    28    10    25 1   
    29    10    45 1   
    30    10    46 1   
    31    11    13 1   
    32    11    26 2   
    33    12    13 ar  
    34    12    17 ar  
    35    12    29 1   
    36    13    14 ar  
    37    14    15 ar  
    38    14    47 1   
    39    15    16 ar  
    40    15    48 1   
    41    16    17 ar  
    42    16    24 1   
    43    17    49 1   
    44    18    27 1   
    45    18    30 2   
    46    19    20 1   
    47    19    27 1   
    48    19    50 1   
    49    19    51 1   
    50    20    21 1   
    51    20    52 1   
    52    20    53 1   
    53    21    22 1   
    54    21    54 1   
    55    21    55 1   
    56    22    23 1   
    57    22    56 1   
    58    22    57 1   
    59    23    27 1   
    60    23    28 2   
    61    26    29 1   
@<TRIPOS>SUBSTRUCTURE
     1 8NU         1 TEMP              0 ****  ****    0 ROOT
