@<TRIPOS>MOLECULE
8NV
   54    58     1     0     0
SMALL
abcg2


@<TRIPOS>ATOM
      1 C4           3.8980    -0.0910     1.8270 cc         1 8NV      -0.140000
      2 C5          -0.2090    -0.1900    -0.0340 ca         1 8NV      -0.049800
      3 C6           2.1030     0.6120     0.7030 cd         1 8NV      -0.035800
      4 C7           2.6610    -0.4960     1.3790 cd         1 8NV      -0.196300
      5 C8           0.0210    -1.5800     0.0580 ca         1 8NV       0.316000
      6 C10          3.0280     1.6450     0.7690 cc         1 8NV      -0.254600
      7 C13          2.8700     2.9230     0.1550 c          1 8NV       0.591600
      8 C15          4.2550    -3.2970    -1.9350 cx         1 8NV      -0.131400
      9 C17          3.1350    -3.3290    -0.9390 cx         1 8NV      -0.127700
     10 C22         -4.8050     0.4110     1.1260 c3         1 8NV      -0.252700
     11 C1          -1.0540    -2.4610    -0.0450 ca         1 8NV      -0.116000
     12 C2          -2.3510    -2.0240    -0.2330 ca         1 8NV      -0.017000
     13 C3          -1.5290     0.2450    -0.1850 ca         1 8NV      -0.025000
     14 C9          -2.5720    -0.6570    -0.2940 ca         1 8NV      -0.260500
     15 C11          0.7370     2.0240    -0.5950 cc         1 8NV      -0.052400
     16 C12          0.8700     0.8130     0.0110 cd         1 8NV      -0.067400
     17 C14          2.0120    -1.8400     1.4420 c3         1 8NV       0.279100
     18 C16          4.5300    -3.0100    -0.4910 cx         1 8NV      -0.131400
     19 C18         -6.2090     0.9840     0.9780 c3         1 8NV      -0.079600
     20 C19         -4.7560    -0.7820     2.0640 c3         1 8NV      -0.079600
     21 N23          4.1060     1.2000     1.4680 na         1 8NV      -0.073000
     22 N24          1.2950    -2.1780     0.2210 nh         1 8NV      -0.811400
     23 N25          1.6750     3.0210    -0.5400 n          1 8NV      -0.276000
     24 O26          3.6890     3.8370     0.2070 o          1 8NV      -0.569000
     25 O27         -5.0470    -1.1350    -1.0270 o          1 8NV      -0.524000
     26 O28         -4.1290     1.1880    -1.3210 o          1 8NV      -0.524000
     27 S29         -4.2180    -0.0380    -0.5250 sy         1 8NV       1.025500
     28 H4           4.6470    -0.6430     2.3710 h4         1 8NV       0.151000
     29 H152         4.2870    -2.4680    -2.6320 hc         1 8NV       0.070700
     30 H17          2.7560    -4.3110    -0.6760 hc         1 8NV       0.084700
     31 H1          -0.8470    -3.5210     0.0210 ha         1 8NV       0.132000
     32 H2          -3.1630    -2.7340    -0.3160 ha         1 8NV       0.143000
     33 H3          -1.7400     1.3060    -0.2080 ha         1 8NV       0.125000
     34 H11         -0.1320     2.2760    -1.1870 h4         1 8NV       0.206000
     35 H142         2.7600    -2.6110     1.6340 h1         1 8NV       0.059700
     36 H141         1.2970    -1.8970     2.2670 h1         1 8NV       0.059700
     37 H162         5.0640    -3.7520     0.0890 hc         1 8NV       0.070700
     38 H161         4.7460    -1.9860    -0.2130 hc         1 8NV       0.070700
     39 H181        -6.5470     1.3320     1.9530 hc         1 8NV       0.052867
     40 H183        -6.2400     1.8320     0.2950 hc         1 8NV       0.052867
     41 H182        -6.9110     0.2260     0.6320 hc         1 8NV       0.052867
     42 H191        -5.1430    -0.4770     3.0360 hc         1 8NV       0.052867
     43 H192        -5.3760    -1.6020     1.7010 hc         1 8NV       0.052867
     44 H193        -3.7430    -1.1500     2.2190 hc         1 8NV       0.052867
     45 H23          4.9340     1.7360     1.6690 hn         1 8NV       0.368000
     46 H5          -4.1140     1.1890     1.4630 h1         1 8NV       0.091700
     47 C20          1.3700     4.2530    -1.2600 c3         1 8NV       0.070300
     48 C21          2.0830    -2.2550    -1.0020 c3         1 8NV       0.229800
     49 H151         4.5960    -4.2370    -2.3490 hc         1 8NV       0.070700
     50 H203         2.2090     4.9330    -1.1900 h1         1 8NV       0.057700
     51 H201         1.1790     4.0340    -2.3090 h1         1 8NV       0.057700
     52 H202         0.4910     4.7320    -0.8310 h1         1 8NV       0.057700
     53 H211         2.5570    -1.2960    -1.2620 h1         1 8NV       0.042700
     54 H212         1.3890    -2.4840    -1.8140 h1         1 8NV       0.042700
@<TRIPOS>BOND
     1     1     4 2   
     2     1    21 1   
     3     1    28 1   
     4     2     5 ar  
     5     2    13 ar  
     6     2    16 1   
     7     3     4 1   
     8     3     6 2   
     9     3    16 1   
    10     4    17 1   
    11     5    11 ar  
    12     5    22 1   
    13     6     7 1   
    14     6    21 1   
    15     7    23 1   
    16     7    24 2   
    17     8     9 1   
    18     8    18 1   
    19     8    29 1   
    20     8    49 1   
    21     9    18 1   
    22     9    30 1   
    23     9    48 1   
    24    10    19 1   
    25    10    20 1   
    26    10    27 1   
    27    10    46 1   
    28    11    12 ar  
    29    11    31 1   
    30    12    14 ar  
    31    12    32 1   
    32    13    14 ar  
    33    13    33 1   
    34    14    27 1   
    35    15    16 2   
    36    15    23 1   
    37    15    34 1   
    38    17    22 1   
    39    17    35 1   
    40    17    36 1   
    41    18    37 1   
    42    18    38 1   
    43    19    39 1   
    44    19    40 1   
    45    19    41 1   
    46    20    42 1   
    47    20    43 1   
    48    20    44 1   
    49    21    45 1   
    50    22    48 1   
    51    23    47 1   
    52    25    27 2   
    53    26    27 2   
    54    47    50 1   
    55    47    51 1   
    56    47    52 1   
    57    48    53 1   
    58    48    54 1   
@<TRIPOS>SUBSTRUCTURE
     1 8NV         1 TEMP              0 ****  ****    0 ROOT
