@<TRIPOS>MOLECULE
8NV
   54    58     1     0     0
SMALL
No Charge or Current Charge


@<TRIPOS>ATOM
      1 C4           3.9490     0.0140     1.7650 cc         1 8NV      -0.140000
      2 C5          -0.1830    -0.1120    -0.1200 ca         1 8NV      -0.049800
      3 C6           2.1610     0.8060     0.6400 cd         1 8NV      -0.035800
      4 C7           2.7110    -0.3290     1.2800 cd         1 8NV      -0.196300
      5 C8           0.0910    -1.5100    -0.0460 ca         1 8NV       0.316000
      6 C10          3.0420     1.8450     0.7340 cc         1 8NV      -0.254600
      7 C13          2.7870     3.1830     0.1900 c          1 8NV       0.591600
      8 C15          4.2310    -3.8450    -1.8170 cx         1 8NV      -0.131400
      9 C17          3.0720    -3.5860    -0.8820 cx         1 8NV      -0.127700
     10 C22         -4.8030     0.3430     1.0200 c3         1 8NV      -0.252700
     11 C1          -0.9440    -2.4490    -0.1860 ca         1 8NV      -0.116000
     12 C2          -2.2680    -2.0450    -0.3870 ca         1 8NV      -0.017000
     13 C3          -1.5350     0.2740    -0.3150 ca         1 8NV      -0.025000
     14 C9          -2.5680    -0.6750    -0.4470 ca         1 8NV      -0.260500
     15 C11          0.6300     2.2330    -0.5200 cc         1 8NV      -0.052400
     16 C12          0.8750     0.9510    -0.0250 cd         1 8NV      -0.067400
     17 C14          2.0750    -1.6780     1.3830 c3         1 8NV       0.279100
     18 C16          4.4930    -3.5000    -0.3700 cx         1 8NV      -0.131400
     19 C18         -6.2420     0.9220     1.0240 c3         1 8NV      -0.079600
     20 C19         -4.6510    -0.8270     2.0280 c3         1 8NV      -0.079600
     21 N23          4.1490     1.3530     1.4260 na         1 8NV      -0.073000
     22 N24          1.3810    -2.0270     0.1440 nh         1 8NV      -0.811400
     23 N25          1.5320     3.3070    -0.4360 n          1 8NV      -0.276000
     24 O26          3.5920     4.1030     0.2780 o          1 8NV      -0.569000
     25 O27         -5.0940    -1.2720    -1.0860 o          1 8NV      -0.524000
     26 O28         -4.2550     1.1150    -1.4590 o          1 8NV      -0.524000
     27 S29         -4.2750    -0.1240    -0.6700 sy         1 8NV       1.025500
     28 H4           4.6860    -0.5700     2.3040 h4         1 8NV       0.151000
     29 H152         4.4630    -3.0910    -2.5660 hc         1 8NV       0.070700
     30 H17          2.4900    -4.4540    -0.5810 hc         1 8NV       0.084700
     31 H1          -0.7120    -3.5080    -0.1340 ha         1 8NV       0.132000
     32 H2          -3.0500    -2.7970    -0.4840 ha         1 8NV       0.143000
     33 H3          -1.8120     1.3240    -0.3320 ha         1 8NV       0.125000
     34 H11         -0.2640     2.5250    -1.0570 h4         1 8NV       0.206000
     35 H142         2.8410    -2.4280     1.6250 h1         1 8NV       0.059700
     36 H141         1.3660    -1.6710     2.2230 h1         1 8NV       0.059700
     37 H162         4.8420    -4.2930     0.2880 hc         1 8NV       0.070700
     38 H161         4.8960    -2.5140    -0.1480 hc         1 8NV       0.070700
     39 H181        -6.5210     1.2560     2.0310 hc         1 8NV       0.052867
     40 H183        -6.3200     1.7860     0.3520 hc         1 8NV       0.052867
     41 H182        -6.9710     0.1690     0.7010 hc         1 8NV       0.052867
     42 H191        -4.9520    -0.5100     3.0340 hc         1 8NV       0.052867
     43 H192        -5.2780    -1.6810     1.7410 hc         1 8NV       0.052867
     44 H193        -3.6110    -1.1680     2.0880 hc         1 8NV       0.052867
     45 H23          4.9800     1.8930     1.6520 hn         1 8NV       0.368000
     46 H5          -4.1150     1.1410     1.3200 h1         1 8NV       0.091700
     47 C20          1.1850     4.6270    -1.0140 c3         1 8NV       0.070300
     48 C21          2.2080    -2.3390    -1.0400 c3         1 8NV       0.229800
     49 H151         4.4070    -4.8700    -2.1340 hc         1 8NV       0.070700
     50 H203         1.9100     4.8900    -1.7950 h1         1 8NV       0.057700
     51 H201         0.1810     4.6130    -1.4560 h1         1 8NV       0.057700
     52 H202         1.2110     5.3930    -0.2280 h1         1 8NV       0.057700
     53 H211         2.8500    -1.4790    -1.2780 h1         1 8NV       0.042700
     54 H212         1.5530    -2.4940    -1.9080 h1         1 8NV       0.042700
@<TRIPOS>BOND
     1     1     4 2   
     2     1    21 1   
     3     1    28 1   
     4     2     5 ar  
     5     2    13 ar  
     6     2    16 1   
     7     3     4 1   
     8     3     6 2   
     9     3    16 1   
    10     4    17 1   
    11     5    11 ar  
    12     5    22 1   
    13     6     7 1   
    14     6    21 1   
    15     7    23 1   
    16     7    24 2   
    17     8     9 1   
    18     8    18 1   
    19     8    29 1   
    20     8    49 1   
    21     9    18 1   
    22     9    30 1   
    23     9    48 1   
    24    10    19 1   
    25    10    20 1   
    26    10    27 1   
    27    10    46 1   
    28    11    12 ar  
    29    11    31 1   
    30    12    14 ar  
    31    12    32 1   
    32    13    14 ar  
    33    13    33 1   
    34    14    27 1   
    35    15    16 2   
    36    15    23 1   
    37    15    34 1   
    38    17    22 1   
    39    17    35 1   
    40    17    36 1   
    41    18    37 1   
    42    18    38 1   
    43    19    39 1   
    44    19    40 1   
    45    19    41 1   
    46    20    42 1   
    47    20    43 1   
    48    20    44 1   
    49    21    45 1   
    50    22    48 1   
    51    23    47 1   
    52    25    27 2   
    53    26    27 2   
    54    47    50 1   
    55    47    51 1   
    56    47    52 1   
    57    48    53 1   
    58    48    54 1   
@<TRIPOS>SUBSTRUCTURE
     1 8NV         1 TEMP              0 ****  ****    0 ROOT
