@<TRIPOS>MOLECULE
8NW
   37    37     1     0     0
SMALL
bcc


@<TRIPOS>ATOM
      1 C1          -2.2010     0.9870     0.1640 c3         1 8NW      -0.066400
      2 C2          -3.5560     0.5720     0.7160 c5         1 8NW       0.048400
      3 N1           3.6240    -0.5580    -0.4240 ns         1 8NW      -0.572900
      4 O1           3.1080     1.5090     0.3120 o          1 8NW      -0.606100
      5 S1          -4.0210    -1.1470     0.2050 ss         1 8NW      -0.229100
      6 S2          -5.5950    -0.5820    -1.0350 ss         1 8NW      -0.188100
      7 O3           8.3000    -0.0400     0.7970 oh         1 8NW      -0.597800
      8 C5          -5.9880     0.8290     0.0390 c5         1 8NW       0.008700
      9 C6          -4.6700     1.5400     0.2870 c5         1 8NW      -0.085400
     10 C7          -1.0360     0.1470     0.6650 c3         1 8NW      -0.078400
     11 C8           0.3030     0.6430     0.1360 c3         1 8NW      -0.066400
     12 C9           1.4700    -0.2110     0.6230 c3         1 8NW      -0.157400
     13 C10          2.8050     0.3310     0.1600 c          1 8NW       0.665100
     14 C13          4.9590    -0.2320    -0.8730 c3         1 8NW       0.104000
     15 C14          6.0010    -0.3120     0.2380 c3         1 8NW      -0.107400
     16 C15          7.3790     0.0650    -0.2670 c3         1 8NW       0.144400
     17 H1          -2.2410     0.9650    -0.9290 hc         1 8NW       0.052200
     18 H2          -2.0380     2.0340     0.4470 hc         1 8NW       0.052200
     19 H3          -3.5090     0.5180     1.8060 h1         1 8NW       0.082700
     20 H4           3.3300    -1.5180    -0.4900 hn         1 8NW       0.312500
     21 H5           9.1670     0.2160     0.4700 ho         1 8NW       0.404000
     22 H6          -6.7000     1.4640    -0.4890 h1         1 8NW       0.085700
     23 H7          -6.4480     0.4710     0.9610 h1         1 8NW       0.085700
     24 H8          -4.7910     2.3100     1.0520 hc         1 8NW       0.067700
     25 H9          -4.3670     2.0410    -0.6350 hc         1 8NW       0.067700
     26 H10         -1.0230     0.1590     1.7610 hc         1 8NW       0.046700
     27 H11         -1.1820    -0.8970     0.3700 hc         1 8NW       0.046700
     28 H12          0.2850     0.6420    -0.9580 hc         1 8NW       0.053700
     29 H13          0.4550     1.6800     0.4440 hc         1 8NW       0.053700
     30 H14          1.4830    -0.2200     1.7180 hc         1 8NW       0.057200
     31 H15          1.3330    -1.2480     0.3070 hc         1 8NW       0.057200
     32 H16          5.2140    -0.9240    -1.6770 h1         1 8NW       0.052200
     33 H17          4.9490     0.7680    -1.3090 h1         1 8NW       0.052200
     34 H18          5.7130     0.3590     1.0520 hc         1 8NW       0.061700
     35 H19          6.0220    -1.3270     0.6450 hc         1 8NW       0.061700
     36 H20          7.3500     1.0860    -0.6720 h1         1 8NW       0.015700
     37 H21          7.6560    -0.5940    -1.1020 h1         1 8NW       0.015700
@<TRIPOS>BOND
     1     1     2 1   
     2     1    10 1   
     3     1    17 1   
     4     1    18 1   
     5     2     5 1   
     6     2     9 1   
     7     2    19 1   
     8     3    13 1   
     9     3    14 1   
    10     3    20 1   
    11     4    13 2   
    12     5     6 1   
    13     6     8 1   
    14     7    16 1   
    15     7    21 1   
    16     8     9 1   
    17     8    22 1   
    18     8    23 1   
    19     9    24 1   
    20     9    25 1   
    21    10    11 1   
    22    10    26 1   
    23    10    27 1   
    24    11    12 1   
    25    11    28 1   
    26    11    29 1   
    27    12    13 1   
    28    12    30 1   
    29    12    31 1   
    30    14    15 1   
    31    14    32 1   
    32    14    33 1   
    33    15    16 1   
    34    15    34 1   
    35    15    35 1   
    36    16    36 1   
    37    16    37 1   
@<TRIPOS>SUBSTRUCTURE
     1 8NW         1 TEMP              0 ****  ****    0 ROOT
