@<TRIPOS>MOLECULE
8NW
   37    37     1     0     0
SMALL
No Charge or Current Charge


@<TRIPOS>ATOM
      1 C1          -2.1880     1.0070    -0.0030 c3         1 8NW      -0.066400
      2 C2          -3.6140     0.5280     0.3660 c5         1 8NW       0.096300
      3 N1           3.5870    -0.2990    -0.3540 ns         1 8NW      -0.505900
      4 O1           3.3250     1.4890     1.0370 o          1 8NW      -0.606100
      5 S1          -3.9390    -1.1620    -0.3400 ss         1 8NW      -0.277000
      6 S2          -6.0270    -0.9860    -0.3090 ss         1 8NW      -0.236000
      7 O3           8.3990    -0.4610     0.6720 oh         1 8NW      -0.660000
      8 C5          -6.0420     0.7610     0.3190 c5         1 8NW       0.056600
      9 C6          -4.7430     1.4290    -0.2070 c5         1 8NW      -0.085400
     10 C7          -1.0450     0.1850     0.6390 c3         1 8NW      -0.078400
     11 C8           0.3590     0.7240     0.2840 c3         1 8NW      -0.066400
     12 C9           1.5010    -0.0980     0.9270 c3         1 8NW      -0.157400
     13 C10          2.8780     0.4600     0.5510 c          1 8NW       0.598100
     14 C13          4.9350     0.0130    -0.8340 c3         1 8NW       0.104000
     15 C14          6.0220    -0.3770     0.1870 c3         1 8NW      -0.107400
     16 C15          7.4440    -0.0710    -0.3180 c3         1 8NW       0.167600
     17 H1          -2.0680     0.9950    -1.0940 hc         1 8NW       0.052200
     18 H2          -2.0740     2.0530     0.3070 hc         1 8NW       0.052200
     19 H3          -3.6870     0.4770     1.4620 h1         1 8NW       0.082700
     20 H4           3.1340    -1.1370    -0.6990 hn         1 8NW       0.312500
     21 H5           9.2880    -0.2480     0.3100 ho         1 8NW       0.443000
     22 H6          -6.9440     1.2780    -0.0350 h1         1 8NW       0.085700
     23 H7          -6.0710     0.7540     1.4170 h1         1 8NW       0.085700
     24 H8          -4.6560     2.4600     0.1530 hc         1 8NW       0.067700
     25 H9          -4.7210     1.4660    -1.3020 hc         1 8NW       0.067700
     26 H10         -1.1680     0.1900     1.7290 hc         1 8NW       0.046700
     27 H11         -1.1170    -0.8600     0.3140 hc         1 8NW       0.046700
     28 H12          0.4820     0.7200    -0.8060 hc         1 8NW       0.053700
     29 H13          0.4380     1.7690     0.6110 hc         1 8NW       0.053700
     30 H14          1.3910    -0.0530     2.0170 hc         1 8NW       0.057200
     31 H15          1.4130    -1.1380     0.5890 hc         1 8NW       0.057200
     32 H16          5.1040    -0.5310    -1.7730 h1         1 8NW       0.052200
     33 H17          4.9990     1.0880    -1.0510 h1         1 8NW       0.052200
     34 H18          5.8510     0.1640     1.1260 hc         1 8NW       0.061700
     35 H19          5.9400    -1.4470     0.4090 hc         1 8NW       0.061700
     36 H20          7.5320     1.0030    -0.5290 h1         1 8NW       0.015700
     37 H21          7.6220    -0.6170    -1.2540 h1         1 8NW       0.015700
@<TRIPOS>BOND
     1     1     2 1   
     2     1    10 1   
     3     1    17 1   
     4     1    18 1   
     5     2     5 1   
     6     2     9 1   
     7     2    19 1   
     8     3    13 1   
     9     3    14 1   
    10     3    20 1   
    11     4    13 2   
    12     5     6 1   
    13     6     8 1   
    14     7    16 1   
    15     7    21 1   
    16     8     9 1   
    17     8    22 1   
    18     8    23 1   
    19     9    24 1   
    20     9    25 1   
    21    10    11 1   
    22    10    26 1   
    23    10    27 1   
    24    11    12 1   
    25    11    28 1   
    26    11    29 1   
    27    12    13 1   
    28    12    30 1   
    29    12    31 1   
    30    14    15 1   
    31    14    32 1   
    32    14    33 1   
    33    15    16 1   
    34    15    34 1   
    35    15    35 1   
    36    16    36 1   
    37    16    37 1   
@<TRIPOS>SUBSTRUCTURE
     1 8NW         1 TEMP              0 ****  ****    0 ROOT
