@<TRIPOS>MOLECULE
8NX
   17    18     1     0     0
SMALL
bcc


@<TRIPOS>ATOM
      1 N1          -2.6640     0.5520    -0.0160 ns         1 8NX      -0.609500
      2 C2          -2.7210    -0.8350    -0.0230 c          1 8NX       0.842500
      3 O2          -3.7750    -1.4270    -0.0320 o          1 8NX      -0.602500
      4 N3          -1.5060    -1.4660    -0.0180 ns         1 8NX      -0.524400
      5 C4          -0.3450    -0.7550    -0.0110 cc         1 8NX       0.495200
      6 C5          -0.3510     0.6210    -0.0090 cd         1 8NX      -0.323200
      7 C6          -1.5620     1.3930    -0.0120 c          1 8NX       0.778100
      8 O6          -1.6540     2.6000    -0.0100 o          1 8NX      -0.578500
      9 N7           0.9580     0.9830    -0.0040 na         1 8NX      -0.199900
     10 C8           1.6430    -0.1620    -0.0030 cd         1 8NX       0.352000
     11 N9           0.9030    -1.2420    -0.0070 nc         1 8NX      -0.619000
     12 N10          3.0760    -0.1670     0.0050 no         1 8NX       0.237500
     13 O11          3.6150     0.9150     0.0010 o          1 8NX      -0.165500
     14 O12          3.6270    -1.2350     0.0160 o          1 8NX      -0.165500
     15 HN1         -3.5670     1.0060    -0.0240 hn         1 8NX       0.352500
     16 HN3         -1.4910    -2.4740    -0.0280 hn         1 8NX       0.371500
     17 HN7          1.3310     1.9220    -0.0010 hn         1 8NX       0.358700
@<TRIPOS>BOND
     1     1     2 1   
     2     1     7 1   
     3     1    15 1   
     4     2     3 2   
     5     2     4 1   
     6     4     5 1   
     7     4    16 1   
     8     5     6 2   
     9     5    11 1   
    10     6     7 1   
    11     6     9 1   
    12     7     8 2   
    13     9    10 1   
    14     9    17 1   
    15    10    11 2   
    16    10    12 1   
    17    12    13 1   
    18    12    14 1   
@<TRIPOS>SUBSTRUCTURE
     1 8NX         1 TEMP              0 ****  ****    0 ROOT
