@<TRIPOS>MOLECULE
8NX
   17    18     1     0     0
SMALL
No Charge or Current Charge


@<TRIPOS>ATOM
      1 N1          -2.7420     0.5360    -0.0210 ns         1 8NX      -0.475500
      2 C2          -2.7410    -0.8320    -0.0240 c          1 8NX       0.633000
      3 O2          -3.7610    -1.4920    -0.0300 o          1 8NX      -0.527000
      4 N3          -1.5040    -1.3980    -0.0190 ns         1 8NX      -0.570900
      5 C4          -0.3640    -0.6800    -0.0120 cc         1 8NX       0.429900
      6 C5          -0.3900     0.6560    -0.0100 cd         1 8NX      -0.308600
      7 C6          -1.6660     1.3820    -0.0140 c          1 8NX       0.635600
      8 O6          -1.7740     2.5960    -0.0120 o          1 8NX      -0.503000
      9 N7           0.9490     1.0300    -0.0030 na         1 8NX      -0.199500
     10 C8           1.7050    -0.1520    -0.0010 cd         1 8NX       0.352000
     11 N9           0.8720    -1.2120    -0.0070 nc         1 8NX      -0.619000
     12 N10          3.1790    -0.2300     0.0050 no         1 8NX       0.617500
     13 O11          3.8150     0.8370     0.0100 o          1 8NX      -0.355500
     14 O12          3.7170    -1.3520     0.0060 o          1 8NX      -0.355500
     15 HN1         -3.6480     0.9750    -0.0240 hn         1 8NX       0.352500
     16 HN3         -1.4620    -2.4080    -0.0210 hn         1 8NX       0.485000
     17 HN7          1.3320     1.9720     0.0010 hn         1 8NX       0.409000
@<TRIPOS>BOND
     1     1     2 1   
     2     1     7 1   
     3     1    15 1   
     4     2     3 2   
     5     2     4 1   
     6     4     5 1   
     7     4    16 1   
     8     5     6 2   
     9     5    11 1   
    10     6     7 1   
    11     6     9 1   
    12     7     8 2   
    13     9    10 1   
    14     9    17 1   
    15    10    11 2   
    16    10    12 1   
    17    12    13 1   
    18    12    14 1   
@<TRIPOS>SUBSTRUCTURE
     1 8NX         1 TEMP              0 ****  ****    0 ROOT
