@<TRIPOS>MOLECULE
8NY
   15    16     1     0     0
SMALL
bcc


@<TRIPOS>ATOM
      1 C1          -0.4880    -1.5170     0.0130 ca         1 8NY      -0.066000
      2 C2          -1.8430    -1.7550     0.0120 ca         1 8NY      -0.149000
      3 C3          -2.6870    -0.6400     0.0020 ca         1 8NY      -0.029200
      4 C4          -2.1860     0.6730    -0.0070 ca         1 8NY      -0.239900
      5 C5          -0.8030     0.9030    -0.0060 ca         1 8NY      -0.015000
      6 C6           0.0170    -0.1990     0.0040 ca         1 8NY       0.018900
      7 I7           2.1060     0.0700     0.0060 i          1 8NY      -0.177900
      8 C8          -3.3490     1.4900    -0.0170 cc         1 8NY       0.359800
      9 N9          -4.4300     0.7520    -0.0150 nd         1 8NY      -0.512100
     10 N10         -4.0330    -0.5210    -0.0030 na         1 8NY      -0.008100
     11 H1           0.1930    -2.3570     0.0210 ha         1 8NY       0.145000
     12 H2          -2.2270    -2.7660     0.0190 ha         1 8NY       0.142000
     13 H5          -0.4120     1.9120    -0.0130 ha         1 8NY       0.151000
     14 H8          -3.4140     2.5670    -0.0260 h4         1 8NY       0.053800
     15 HN10        -4.7190    -1.2580     0.0000 hn         1 8NY       0.327700
@<TRIPOS>BOND
     1     1     2 ar  
     2     1     6 ar  
     3     1    11 1   
     4     2     3 ar  
     5     2    12 1   
     6     3     4 ar  
     7     3    10 1   
     8     4     5 ar  
     9     4     8 1   
    10     5     6 ar  
    11     5    13 1   
    12     6     7 1   
    13     8     9 2   
    14     8    14 1   
    15     9    10 1   
    16    10    15 1   
@<TRIPOS>SUBSTRUCTURE
     1 8NY         1 TEMP              0 ****  ****    0 ROOT
