@<TRIPOS>MOLECULE
8NY
   15    16     1     0     0
SMALL
No Charge or Current Charge


@<TRIPOS>ATOM
      1 C1          -0.4610    -1.5340     0.0130 ca         1 8NY      -0.048000
      2 C2          -1.8570    -1.7560     0.0120 ca         1 8NY      -0.131000
      3 C3          -2.6890    -0.6300     0.0010 ca         1 8NY      -0.029200
      4 C4          -2.1950     0.6360    -0.0080 ca         1 8NY      -0.239900
      5 C5          -0.8170     0.8980    -0.0060 ca         1 8NY       0.003000
      6 C6           0.0550    -0.2130     0.0040 ca         1 8NY       0.156000
      7 I7           2.1990     0.1010     0.0070 i          1 8NY      -0.315000
      8 C8          -3.3420     1.5070    -0.0170 cc         1 8NY       0.359800
      9 N9          -4.4920     0.8110    -0.0150 nd         1 8NY      -0.512100
     10 N10         -4.0640    -0.5260    -0.0030 na         1 8NY      -0.058400
     11 H1           0.2230    -2.3780     0.0220 ha         1 8NY       0.127000
     12 H2          -2.2670    -2.7640     0.0190 ha         1 8NY       0.124000
     13 H5          -0.4300     1.9140    -0.0130 ha         1 8NY       0.133000
     14 H8          -3.4110     2.5870    -0.0260 h4         1 8NY       0.053800
     15 HN10        -4.7260    -1.3010     0.0010 hn         1 8NY       0.378000
@<TRIPOS>BOND
     1     1     2 ar  
     2     1     6 ar  
     3     1    11 1   
     4     2     3 ar  
     5     2    12 1   
     6     3     4 ar  
     7     3    10 1   
     8     4     5 ar  
     9     4     8 1   
    10     5     6 ar  
    11     5    13 1   
    12     6     7 1   
    13     8     9 2   
    14     8    14 1   
    15     9    10 1   
    16    10    15 1   
@<TRIPOS>SUBSTRUCTURE
     1 8NY         1 TEMP              0 ****  ****    0 ROOT
