@<TRIPOS>MOLECULE
8NZ
   18    19     1     0     0
SMALL
bcc


@<TRIPOS>ATOM
      1 C2           3.0400    -1.3940     0.0060 c          1 8NZ       0.942800
      2 C3           2.4430    -0.0220     0.0040 cc         1 8NZ      -0.158400
      3 C4           3.1430     1.1560     0.0070 cd         1 8NZ      -0.120100
      4 C5           1.0040     1.7600    -0.0060 ca         1 8NZ      -0.068200
      5 C6          -0.1990     2.4620    -0.0150 ca         1 8NZ      -0.167000
      6 C7          -1.3730     1.7350    -0.0220 ca         1 8NZ      -0.111000
      7 C8          -1.3250     0.3330    -0.0210 ca         1 8NZ      -0.071900
      8 O1           4.2860    -1.4640     0.0080 o          1 8NZ      -0.832800
      9 BR          -2.9670    -0.6200    -0.0320 br         1 8NZ      -0.164100
     10 C9          -0.1420    -0.3760    -0.0120 ca         1 8NZ      -0.009000
     11 C10          1.0560     0.3480    -0.0050 ca         1 8NZ      -0.070800
     12 N            2.2910     2.2160     0.0010 na         1 8NZ      -0.190400
     13 O2           2.2390    -2.3530     0.0050 o          1 8NZ      -0.832800
     14 H1           4.2100     1.3130     0.0130 h4         1 8NZ       0.165000
     15 H2          -0.2250     3.5440    -0.0160 ha         1 8NZ       0.112000
     16 H3          -2.3210     2.2540    -0.0280 ha         1 8NZ       0.121000
     17 H5          -0.1190    -1.4560    -0.0110 ha         1 8NZ       0.183000
     18 H6           2.5690     3.1830     0.0070 hn         1 8NZ       0.274700
@<TRIPOS>BOND
     1     1     2 1   
     2     1     8 1   
     3     1    13 1   
     4     2     3 2   
     5     2    11 1   
     6     3    12 1   
     7     3    14 1   
     8     4     5 ar  
     9     4    11 ar  
    10     4    12 1   
    11     5     6 ar  
    12     5    15 1   
    13     6     7 ar  
    14     6    16 1   
    15     7     9 1   
    16     7    10 ar  
    17    10    11 ar  
    18    10    17 1   
    19    12    18 1   
@<TRIPOS>SUBSTRUCTURE
     1 8NZ         1 TEMP              0 ****  ****    0 ROOT
