@<TRIPOS>MOLECULE
8NZ
   18    19     1     0     0
SMALL
No Charge or Current Charge


@<TRIPOS>ATOM
      1 C2           3.0190    -1.3910     0.0060 c          1 8NZ       0.732200
      2 C3           2.4370    -0.0160     0.0030 cc         1 8NZ      -0.158400
      3 C4           3.1830     1.1630     0.0070 cd         1 8NZ      -0.170100
      4 C5           1.0230     1.7480    -0.0060 ca         1 8NZ      -0.068200
      5 C6          -0.1850     2.4590    -0.0140 ca         1 8NZ      -0.149000
      6 C7          -1.3910     1.7280    -0.0210 ca         1 8NZ      -0.093000
      7 C8          -1.3640     0.3140    -0.0210 ca         1 8NZ      -0.071900
      8 O1           4.2370    -1.5070     0.0140 o          1 8NZ      -0.727500
      9 Br          -3.0070    -0.6640    -0.0310 br         1 8NZ      -0.164100
     10 C9          -0.1350    -0.3800    -0.0130 ca         1 8NZ       0.009000
     11 C10          1.0490     0.3780    -0.0060 ca         1 8NZ      -0.070800
     12 N            2.3030     2.2730     0.0020 na         1 8NZ      -0.240700
     13 O2           2.2710    -2.3580     0.0020 o          1 8NZ      -0.727500
     14 H1           4.2630     1.2840     0.0140 h4         1 8NZ       0.215000
     15 H2          -0.1950     3.5470    -0.0140 ha         1 8NZ       0.094000
     16 H3          -2.3430     2.2540    -0.0270 ha         1 8NZ       0.103000
     17 H5          -0.1140    -1.4660    -0.0130 ha         1 8NZ       0.165000
     18 H6           2.5590     3.2560     0.0030 hn         1 8NZ       0.325000
@<TRIPOS>BOND
     1     1     2 1   
     2     1     8 1   
     3     1    13 1   
     4     2     3 2   
     5     2    11 1   
     6     3    12 1   
     7     3    14 1   
     8     4     5 ar  
     9     4    11 ar  
    10     4    12 1   
    11     5     6 ar  
    12     5    15 1   
    13     6     7 ar  
    14     6    16 1   
    15     7     9 1   
    16     7    10 ar  
    17    10    11 ar  
    18    10    17 1   
    19    12    18 1   
@<TRIPOS>SUBSTRUCTURE
     1 8NZ         1 TEMP              0 ****  ****    0 ROOT
