@<TRIPOS>MOLECULE
8O0
   47    50     1     0     0
SMALL
bcc


@<TRIPOS>ATOM
      1 C10         -0.1440    -1.4160     0.0170 c6         1 8O0      -0.042700
      2 C13          2.2180     0.5080     0.0340 c6         1 8O0      -0.013800
      3 C15          0.4670    -0.8330    -1.2610 c6         1 8O0      -0.081400
      4 C21          2.8860    -2.0990     2.2010 c1         1 8O0       0.414800
      5 C01         -3.7020    -0.4470    -0.9590 ca         1 8O0      -0.149000
      6 C02         -4.4480     0.7470    -0.8640 ca         1 8O0      -0.107000
      7 C03         -4.0370     1.8270    -0.1010 ca         1 8O0      -0.144000
      8 C04         -2.8190     1.6970     0.5690 ca         1 8O0      -0.038200
      9 C05         -2.0710     0.5190     0.4470 ca         1 8O0      -0.109800
     10 C06         -2.5000    -0.5810    -0.2900 ca         1 8O0      -0.021300
     11 C07         -0.9510     1.8860     1.7930 cc         1 8O0      -0.102100
     12 C08         -0.8840     0.6520     1.2090 cd         1 8O0      -0.143400
     13 C09          0.0890    -0.4820     1.2340 c6         1 8O0       0.015500
     14 C11         -1.6390    -1.8230    -0.1710 c6         1 8O0       0.012300
     15 C12          1.5650    -0.0440     1.3410 c6         1 8O0       0.301800
     16 C14          1.9370    -0.5260    -1.0620 c6         1 8O0       0.080700
     17 C16          3.7110     0.6030     0.2530 c2         1 8O0      -0.167200
     18 C18         -1.7950    -2.7470    -1.3790 c3         1 8O0      -0.085600
     19 C19          1.6260     1.8770    -0.3010 c3         1 8O0      -0.085100
     20 N01         -2.1100     2.5140     1.4030 na         1 8O0      -0.173400
     21 N02          2.3080    -1.1650     1.8180 n1         1 8O0      -0.839300
     22 CL01         2.6560     0.0250    -2.6300 cl         1 8O0      -0.214400
     23 H1           0.3880    -2.3510     0.2290 hc         1 8O0       0.051700
     24 H2           0.3860    -1.5640    -2.0660 hc         1 8O0       0.065200
     25 H3          -0.0710     0.0580    -1.5910 hc         1 8O0       0.065200
     26 H4          -3.1270    -2.9470     0.9430 hc         1 8O0       0.038867
     27 H5          -1.4680    -3.4650     1.2520 hc         1 8O0       0.038867
     28 H6          -2.0910    -1.9800     1.9760 hc         1 8O0       0.038867
     29 H7           5.4750     1.6640     0.6350 ha         1 8O0       0.114500
     30 H8           3.9610     2.6970     0.5030 ha         1 8O0       0.114500
     31 H12         -4.0980    -1.2590    -1.5560 ha         1 8O0       0.131000
     32 H13         -5.3860     0.8150    -1.4000 ha         1 8O0       0.128000
     33 H14         -4.6410     2.7230    -0.0350 ha         1 8O0       0.133000
     34 H15         -0.2610     2.3950     2.4470 h4         1 8O0       0.162000
     35 H16         -0.0960    -1.0720     2.1380 hc         1 8O0       0.067700
     36 H17          1.6590     0.7300     2.1080 h1         1 8O0       0.068700
     37 H18          2.4690    -1.4520    -0.8320 h1         1 8O0       0.073700
     38 H19          4.2500    -0.3400     0.2380 ha         1 8O0       0.127000
     39 H20         -2.7920    -3.1880    -1.3990 hc         1 8O0       0.038867
     40 H21         -1.6510    -2.2290    -2.3280 hc         1 8O0       0.038867
     41 H22         -1.0790    -3.5700    -1.3310 hc         1 8O0       0.038867
     42 H23          2.1840     2.3380    -1.1130 hc         1 8O0       0.047367
     43 H24          0.5820     1.8170    -0.5960 hc         1 8O0       0.047367
     44 H25          1.6770     2.5430     0.5600 hc         1 8O0       0.047367
     45 H26         -2.3770     3.4410     1.6880 hn         1 8O0       0.300700
     46 C17         -2.1040    -2.5940     1.0760 c3         1 8O0      -0.085600
     47 C20          4.4060     1.7110     0.4750 c2         1 8O0      -0.202000
@<TRIPOS>BOND
     1     1     3 1   
     2     1    13 1   
     3     1    14 1   
     4     1    23 1   
     5     2    15 1   
     6     2    16 1   
     7     2    17 1   
     8     2    19 1   
     9     3    16 1   
    10     3    24 1   
    11     3    25 1   
    12     4    21 3   
    13     5     6 ar  
    14     5    10 ar  
    15     5    31 1   
    16     6     7 ar  
    17     6    32 1   
    18     7     8 ar  
    19     7    33 1   
    20     8     9 ar  
    21     8    20 1   
    22     9    10 ar  
    23     9    12 1   
    24    10    14 1   
    25    11    12 2   
    26    11    20 1   
    27    11    34 1   
    28    12    13 1   
    29    13    15 1   
    30    13    35 1   
    31    14    18 1   
    32    14    46 1   
    33    15    21 1   
    34    15    36 1   
    35    16    22 1   
    36    16    37 1   
    37    17    38 1   
    38    17    47 2   
    39    18    39 1   
    40    18    40 1   
    41    18    41 1   
    42    19    42 1   
    43    19    43 1   
    44    19    44 1   
    45    20    45 1   
    46    26    46 1   
    47    27    46 1   
    48    28    46 1   
    49    29    47 1   
    50    30    47 1   
@<TRIPOS>SUBSTRUCTURE
     1 8O0         1 TEMP              0 ****  ****    0 ROOT
