@<TRIPOS>MOLECULE
8O0
   47    50     1     0     0
SMALL
No Charge or Current Charge


@<TRIPOS>ATOM
      1 C10         -0.1300    -1.4890     0.0320 c6         1 8O0      -0.042700
      2 C13          2.2400     0.5340    -0.0470 c6         1 8O0      -0.013800
      3 C15          0.4840    -0.9340    -1.2940 c6         1 8O0      -0.081400
      4 C21          3.0560    -1.9810     2.4320 c1         1 8O0       0.504000
      5 C01         -3.8030    -0.4690    -0.8820 ca         1 8O0      -0.131000
      6 C02         -4.5120     0.7640    -0.8300 ca         1 8O0      -0.089000
      7 C03         -3.9840     1.8790    -0.1320 ca         1 8O0      -0.126000
      8 C04         -2.7410     1.7180     0.4920 ca         1 8O0      -0.038200
      9 C05         -2.0810     0.5400     0.4140 ca         1 8O0      -0.109800
     10 C06         -2.5430    -0.5890    -0.2450 ca         1 8O0      -0.021300
     11 C07         -0.7930     1.9390     1.6960 cc         1 8O0      -0.152100
     12 C08         -0.8670     0.6660     1.1340 cd         1 8O0      -0.143400
     13 C09          0.1290    -0.4740     1.2240 c6         1 8O0       0.015500
     14 C11         -1.6740    -1.8680    -0.1430 c6         1 8O0       0.012300
     15 C12          1.6340    -0.0360     1.3300 c6         1 8O0       0.301800
     16 C14          1.9760    -0.5460    -1.1470 c6         1 8O0       0.157300
     17 C16          3.7550     0.7610     0.1110 c2         1 8O0      -0.217200
     18 C18         -1.9040    -2.8090    -1.3720 c3         1 8O0      -0.085600
     19 C19          1.6300     1.9220    -0.4500 c3         1 8O0      -0.085100
     20 N01         -1.9810     2.5870     1.2630 na         1 8O0      -0.223700
     21 N02          2.4050    -1.1400     1.9490 n1         1 8O0      -0.928500
     22 Cl01         2.6360    -0.0340    -2.8050 cl         1 8O0      -0.291000
     23 H1           0.4140    -2.4150     0.2660 hc         1 8O0       0.051700
     24 H2           0.4260    -1.6970    -2.0800 hc         1 8O0       0.065200
     25 H3          -0.1010    -0.0810    -1.6630 hc         1 8O0       0.065200
     26 H4          -3.2130    -2.9850     0.9860 hc         1 8O0       0.038867
     27 H5          -1.5680    -3.5710     1.2660 hc         1 8O0       0.038867
     28 H6          -2.1260    -2.0690     2.0190 hc         1 8O0       0.038867
     29 H7           5.3950     1.7550     1.0330 ha         1 8O0       0.164500
     30 H8           3.7150     2.2770     1.6180 ha         1 8O0       0.164500
     31 H12         -4.2430    -1.3140    -1.4030 ha         1 8O0       0.113000
     32 H13         -5.4780     0.8470    -1.3220 ha         1 8O0       0.110000
     33 H14         -4.5270     2.8190    -0.0770 ha         1 8O0       0.115000
     34 H15         -0.0440     2.4160     2.3200 h4         1 8O0       0.212000
     35 H16         -0.1000    -0.9980     2.1610 hc         1 8O0       0.067700
     36 H17          1.6850     0.7810     2.0650 h1         1 8O0       0.068700
     37 H18          2.5470    -1.4530    -0.8990 h1         1 8O0       0.073700
     38 H19          4.4040     0.1430    -0.5150 ha         1 8O0       0.177000
     39 H20         -2.9130    -3.2390    -1.3750 hc         1 8O0       0.038867
     40 H21         -1.7860    -2.2740    -2.3210 hc         1 8O0       0.038867
     41 H22         -1.1970    -3.6480    -1.3690 hc         1 8O0       0.038867
     42 H23          2.1740     2.3680    -1.2910 hc         1 8O0       0.047367
     43 H24          0.5810     1.8580    -0.7550 hc         1 8O0       0.047367
     44 H25          1.6840     2.6390     0.3770 hc         1 8O0       0.047367
     45 H26         -2.2460     3.5410     1.4890 hn         1 8O0       0.351000
     46 C17         -2.1690    -2.6680     1.1020 c3         1 8O0      -0.085600
     47 C20          4.3120     1.6420     0.9610 c2         1 8O0      -0.302000
@<TRIPOS>BOND
     1     1     3 1   
     2     1    13 1   
     3     1    14 1   
     4     1    23 1   
     5     2    15 1   
     6     2    16 1   
     7     2    17 1   
     8     2    19 1   
     9     3    16 1   
    10     3    24 1   
    11     3    25 1   
    12     4    21 3   
    13     5     6 ar  
    14     5    10 ar  
    15     5    31 1   
    16     6     7 ar  
    17     6    32 1   
    18     7     8 ar  
    19     7    33 1   
    20     8     9 ar  
    21     8    20 1   
    22     9    10 ar  
    23     9    12 1   
    24    10    14 1   
    25    11    12 2   
    26    11    20 1   
    27    11    34 1   
    28    12    13 1   
    29    13    15 1   
    30    13    35 1   
    31    14    18 1   
    32    14    46 1   
    33    15    21 1   
    34    15    36 1   
    35    16    22 1   
    36    16    37 1   
    37    17    38 1   
    38    17    47 2   
    39    18    39 1   
    40    18    40 1   
    41    18    41 1   
    42    19    42 1   
    43    19    43 1   
    44    19    44 1   
    45    20    45 1   
    46    26    46 1   
    47    27    46 1   
    48    28    46 1   
    49    29    47 1   
    50    30    47 1   
@<TRIPOS>SUBSTRUCTURE
     1 8O0         1 TEMP              0 ****  ****    0 ROOT
