@<TRIPOS>MOLECULE
8O1
   50    53     1     0     0
SMALL
abcg2


@<TRIPOS>ATOM
      1 C4           1.4500    -0.2170     0.3210 ca         1 8O1       0.053000
      2 C5          -1.1320    -3.3160    -2.2070 cc         1 8O1      -0.152000
      3 C6          -1.1610    -1.7130    -0.6480 cd         1 8O1      -0.041800
      4 C7           0.1790     0.2950     0.1510 ca         1 8O1      -0.146800
      5 C8           0.0130     1.6790    -0.1270 ca         1 8O1       0.410000
      6 C10         -2.2710    -2.5330    -0.4810 cc         1 8O1      -0.255600
      7 C13         -3.2790    -2.3630     0.5170 c          1 8O1       0.591600
      8 C15         -3.6790     4.9850    -0.3700 cx         1 8O1      -0.123400
      9 C17          6.0720    -1.1490    -1.2040 c3         1 8O1      -0.068100
     10 C20          4.6720    -0.5600    -1.2100 c3         1 8O1      -0.296400
     11 C1           1.1600     2.4960    -0.1660 ca         1 8O1      -0.234000
     12 C2           2.4200     1.9670     0.0170 ca         1 8O1       0.044000
     13 C3          -0.4360    -2.2190    -1.7540 cd         1 8O1      -0.183000
     14 C9           2.5710     0.6060     0.2520 ca         1 8O1      -0.356500
     15 C11         -1.9310    -0.4620     1.2050 cc         1 8O1      -0.074400
     16 C12         -0.9850    -0.6120     0.2450 cd         1 8O1      -0.055400
     17 C14         -3.9640     3.6520     0.2520 cx         1 8O1      -0.123400
     18 C16         -2.9620     3.7680    -0.8600 cx         1 8O1      -0.157700
     19 C19         -1.5020     3.5920    -0.5570 c3         1 8O1       0.257800
     20 N21         -2.2320    -3.4980    -1.4400 na         1 8O1      -0.074000
     21 N22         -3.0220    -1.2830     1.3440 n          1 8O1      -0.279000
     22 N23         -1.2130     2.1910    -0.3490 nu         1 8O1      -0.967200
     23 O24         -4.2680    -3.0810     0.6460 o          1 8O1      -0.573000
     24 O25          4.0600    -1.3070     1.2470 o          1 8O1      -0.531000
     25 O26          5.0870     0.9620     0.9070 o          1 8O1      -0.531000
     26 S27          4.1720    -0.0850     0.4460 sy         1 8O1       1.059500
     27 H4           1.5610    -1.2740     0.5280 ha         1 8O1       0.140000
     28 H5          -0.9150    -3.9800    -3.0280 h4         1 8O1       0.150000
     29 H151        -3.1160     5.7050     0.2110 hc         1 8O1       0.075950
     30 H173         6.8090    -0.4250    -0.8600 hc         1 8O1       0.051033
     31 H172         6.1320    -2.0360    -0.5760 hc         1 8O1       0.051033
     32 H171         6.3390    -1.4390    -2.2190 hc         1 8O1       0.051033
     33 H1           1.0640     3.5570    -0.3490 ha         1 8O1       0.118000
     34 H2           3.2780     2.6240    -0.0230 ha         1 8O1       0.132000
     35 H3           0.4800    -1.8330    -2.1720 ha         1 8O1       0.141000
     36 H11         -1.8670     0.3300     1.9390 h4         1 8O1       0.202000
     37 H142        -3.5930     3.4660     1.2530 hc         1 8O1       0.075950
     38 H141        -4.9110     3.1770     0.0330 hc         1 8O1       0.075950
     39 H16         -3.2720     3.3810    -1.8260 hc         1 8O1       0.088700
     40 H191        -0.9030     3.9860    -1.3850 h1         1 8O1       0.046700
     41 H192        -1.2290     4.1730     0.3330 h1         1 8O1       0.046700
     42 H21         -2.9160    -4.2280    -1.5620 hn         1 8O1       0.367000
     43 H23         -1.9990     1.5630    -0.3250 hn         1 8O1       0.503000
     44 H201         4.6090     0.3360    -1.8290 h1         1 8O1       0.090200
     45 H202         3.9310    -1.2770    -1.5690 h1         1 8O1       0.090200
     46 C18         -3.9640    -0.9560     2.4060 c3         1 8O1       0.072300
     47 H152        -4.4330     5.4240    -1.0100 hc         1 8O1       0.075950
     48 H183        -4.6980    -1.7460     2.5040 h1         1 8O1       0.054700
     49 H181        -3.4340    -0.8500     3.3510 h1         1 8O1       0.054700
     50 H182        -4.4800    -0.0230     2.1830 h1         1 8O1       0.054700
@<TRIPOS>BOND
     1     1     4 ar  
     2     1    14 ar  
     3     1    27 1   
     4     2    13 2   
     5     2    20 1   
     6     2    28 1   
     7     3     6 2   
     8     3    13 1   
     9     3    16 1   
    10     4     5 ar  
    11     4    16 1   
    12     5    11 ar  
    13     5    22 1   
    14     6     7 1   
    15     6    20 1   
    16     7    21 1   
    17     7    23 2   
    18     8    17 1   
    19     8    18 1   
    20     8    29 1   
    21     8    47 1   
    22     9    10 1   
    23     9    30 1   
    24     9    31 1   
    25     9    32 1   
    26    10    26 1   
    27    10    44 1   
    28    10    45 1   
    29    11    12 ar  
    30    11    33 1   
    31    12    14 ar  
    32    12    34 1   
    33    13    35 1   
    34    14    26 1   
    35    15    16 2   
    36    15    21 1   
    37    15    36 1   
    38    17    18 1   
    39    17    37 1   
    40    17    38 1   
    41    18    19 1   
    42    18    39 1   
    43    19    22 1   
    44    19    40 1   
    45    19    41 1   
    46    20    42 1   
    47    21    46 1   
    48    22    43 1   
    49    24    26 2   
    50    25    26 2   
    51    46    48 1   
    52    46    49 1   
    53    46    50 1   
@<TRIPOS>SUBSTRUCTURE
     1 8O1         1 TEMP              0 ****  ****    0 ROOT
