@<TRIPOS>MOLECULE
8O1
   50    53     1     0     0
SMALL
No Charge or Current Charge


@<TRIPOS>ATOM
      1 C4           1.5170    -0.1820     0.1760 ca         1 8O1       0.053000
      2 C5          -0.6120    -3.6980    -1.6590 cc         1 8O1      -0.152000
      3 C6          -1.0380    -1.8260    -0.4700 cd         1 8O1      -0.041800
      4 C7           0.2300     0.3670    -0.0020 ca         1 8O1      -0.146800
      5 C8           0.1180     1.7540    -0.2770 ca         1 8O1       0.410000
      6 C10         -2.1530    -2.6010    -0.3530 cc         1 8O1      -0.255600
      7 C13         -3.3550    -2.1820     0.3820 c          1 8O1       0.591600
      8 C15         -3.9050     4.8170     0.2950 cx         1 8O1      -0.123400
      9 C17          6.0930    -1.3740    -1.4260 c3         1 8O1      -0.068100
     10 C20          4.7100    -0.6860    -1.3470 c3         1 8O1      -0.296400
     11 C1           1.2680     2.5520    -0.3670 ca         1 8O1      -0.234000
     12 C2           2.5420     1.9980    -0.1860 ca         1 8O1       0.044000
     13 C3          -0.0950    -2.4840    -1.2880 cd         1 8O1      -0.183000
     14 C9           2.6660     0.6260     0.0870 ca         1 8O1      -0.356500
     15 C11         -2.1000    -0.1020     0.8060 cc         1 8O1      -0.074400
     16 C12         -0.9490    -0.5230     0.1500 cd         1 8O1      -0.055400
     17 C14         -4.1130     3.3440     0.5570 cx         1 8O1      -0.123400
     18 C16         -3.0590     3.7950    -0.4310 cx         1 8O1      -0.157700
     19 C19         -1.5780     3.6490    -0.1210 c3         1 8O1       0.257800
     20 N21         -1.8810    -3.7710    -1.0720 na         1 8O1      -0.074000
     21 N22         -3.2570    -0.8880     0.9420 n          1 8O1      -0.279000
     22 N23         -1.1200     2.3300    -0.5560 nu         1 8O1      -0.967200
     23 O24         -4.3520    -2.8880     0.4840 o          1 8O1      -0.573000
     24 O25          4.1540    -1.2990     1.1600 o          1 8O1      -0.531000
     25 O26          5.2460     0.9600     0.6520 o          1 8O1      -0.531000
     26 S27          4.2930    -0.1060     0.3150 sy         1 8O1       1.059500
     27 H4           1.6180    -1.2370     0.4230 ha         1 8O1       0.140000
     28 H5          -0.2030    -4.4880    -2.2790 h4         1 8O1       0.150000
     29 H151        -3.4360     5.4090     1.0780 hc         1 8O1       0.075950
     30 H173         6.8930    -0.6840    -1.1280 hc         1 8O1       0.051033
     31 H172         6.1330    -2.2530    -0.7720 hc         1 8O1       0.051033
     32 H171         6.2960    -1.7050    -2.4520 hc         1 8O1       0.051033
     33 H1           1.1820     3.6080    -0.6020 ha         1 8O1       0.118000
     34 H2           3.4220     2.6350    -0.2680 ha         1 8O1       0.132000
     35 H3           0.8730    -2.1020    -1.5970 ha         1 8O1       0.141000
     36 H11         -2.1930     0.8500     1.3180 h4         1 8O1       0.202000
     37 H142        -3.7850     2.9540     1.5180 hc         1 8O1       0.075950
     38 H141        -5.0130     2.8790     0.1610 hc         1 8O1       0.075950
     39 H16         -3.2770     3.6570    -1.4880 hc         1 8O1       0.088700
     40 H191        -1.0170     4.4400    -0.6380 h1         1 8O1       0.046700
     41 H192        -1.4140     3.7680     0.9590 h1         1 8O1       0.046700
     42 H21         -2.5230    -4.5530    -1.1690 hn         1 8O1       0.367000
     43 H23         -1.8560     1.6440    -0.7190 hn         1 8O1       0.503000
     44 H201         4.6820     0.1890    -2.0060 h1         1 8O1       0.090200
     45 H202         3.9210    -1.3830    -1.6490 h1         1 8O1       0.090200
     46 C18         -4.4290    -0.3720     1.6870 c3         1 8O1       0.072300
     47 H152        -4.6660     5.3430    -0.2770 hc         1 8O1       0.075950
     48 H183        -4.7480    -1.1080     2.4370 h1         1 8O1       0.054700
     49 H181        -4.1820     0.5640     2.2030 h1         1 8O1       0.054700
     50 H182        -5.2560    -0.1870     0.9900 h1         1 8O1       0.054700
@<TRIPOS>BOND
     1     1     4 ar  
     2     1    14 ar  
     3     1    27 1   
     4     2    13 2   
     5     2    20 1   
     6     2    28 1   
     7     3     6 2   
     8     3    13 1   
     9     3    16 1   
    10     4     5 ar  
    11     4    16 1   
    12     5    11 ar  
    13     5    22 1   
    14     6     7 1   
    15     6    20 1   
    16     7    21 1   
    17     7    23 2   
    18     8    17 1   
    19     8    18 1   
    20     8    29 1   
    21     8    47 1   
    22     9    10 1   
    23     9    30 1   
    24     9    31 1   
    25     9    32 1   
    26    10    26 1   
    27    10    44 1   
    28    10    45 1   
    29    11    12 ar  
    30    11    33 1   
    31    12    14 ar  
    32    12    34 1   
    33    13    35 1   
    34    14    26 1   
    35    15    16 2   
    36    15    21 1   
    37    15    36 1   
    38    17    18 1   
    39    17    37 1   
    40    17    38 1   
    41    18    19 1   
    42    18    39 1   
    43    19    22 1   
    44    19    40 1   
    45    19    41 1   
    46    20    42 1   
    47    21    46 1   
    48    22    43 1   
    49    24    26 2   
    50    25    26 2   
    51    46    48 1   
    52    46    49 1   
    53    46    50 1   
@<TRIPOS>SUBSTRUCTURE
     1 8O1         1 TEMP              0 ****  ****    0 ROOT
