@<TRIPOS>MOLECULE
8O3
   38    39     1     0     0
SMALL
No Charge or Current Charge


@<TRIPOS>ATOM
      1 C10         -2.3340    -1.5410    -0.1430 c          1 8O3       0.625100
      2 C13         -3.8350     0.4610    -0.6730 c6         1 8O3       0.015000
      3 C17         -4.4850    -1.1940     1.1350 c6         1 8O3       0.078000
      4 C01          4.8740     0.7970     0.6450 ca         1 8O3       0.162000
      5 C02          4.1630     1.7280    -0.1270 ca         1 8O3      -0.170000
      6 C03          2.9820     1.3370    -0.7780 ca         1 8O3       0.176000
      7 C04          2.4990     0.0120    -0.6630 ca         1 8O3      -0.110300
      8 C05          3.2240    -0.9160     0.1160 ca         1 8O3      -0.103000
      9 C06          4.4060    -0.5240     0.7670 ca         1 8O3       0.123000
     10 C07          1.2160    -0.4400    -1.3660 c3         1 8O3      -0.073100
     11 C08          0.0060    -0.5820    -0.4090 c3         1 8O3       0.180500
     12 C09         -1.2660    -1.0560    -1.1410 c3         1 8O3      -0.148400
     13 N11         -3.4450    -0.7190     0.1760 n          1 8O3      -0.421800
     14 O12         -2.2100    -2.6410     0.3840 o          1 8O3      -0.583100
     15 C14         -5.1350     1.2330    -0.3320 c          1 8O3       0.556000
     16 N15         -5.7470     0.9510     0.8620 ns         1 8O3      -0.502900
     17 C16         -5.2810    -0.0570     1.8160 c6         1 8O3       0.096000
     18 O18         -5.6130     2.0660    -1.0870 o          1 8O3      -0.568000
     19 N19         -0.2470     0.6930     0.2830 n8         1 8O3      -0.990200
     20 F20          5.0880    -1.4260     1.5090 f          1 8O3      -0.154000
     21 F22          2.3100     2.2520    -1.5120 f          1 8O3      -0.172000
     22 H132        -3.0310     1.2080    -0.6290 h1         1 8O3       0.071700
     23 H131        -3.9400     0.1350    -1.7170 h1         1 8O3       0.071700
     24 H171        -5.1880    -1.8400     0.5900 h1         1 8O3       0.070200
     25 H172        -4.0230    -1.8090     1.9200 h1         1 8O3       0.070200
     26 H021         4.5240     2.7480    -0.2200 ha         1 8O3       0.156000
     27 H051         2.8740    -1.9410     0.2170 ha         1 8O3       0.142000
     28 H071         0.9530     0.2420    -2.1830 hc         1 8O3       0.060700
     29 H072         1.3960    -1.4110    -1.8460 hc         1 8O3       0.060700
     30 H1           0.2630    -1.3390     0.3490 h1         1 8O3       0.082700
     31 H092        -0.9950    -1.9100    -1.7720 hc         1 8O3       0.061700
     32 H091        -1.6250    -0.2430    -1.7780 hc         1 8O3       0.061700
     33 H2          -6.5930     1.4690     1.0680 hn         1 8O3       0.320500
     34 H161        -6.1450    -0.4750     2.3530 h1         1 8O3       0.053200
     35 H162        -4.6370     0.4440     2.5530 h1         1 8O3       0.053200
     36 H3           0.5820     0.9320     0.8390 hn         1 8O3       0.400500
     37 H4          -0.2800     1.4450    -0.4140 hn         1 8O3       0.400500
     38 F21          6.0110     1.1800     1.2700 f          1 8O3      -0.151000
@<TRIPOS>BOND
     1     1    12 1   
     2     1    13 1   
     3     1    14 2   
     4     2    13 1   
     5     2    15 1   
     6     2    22 1   
     7     2    23 1   
     8     3    13 1   
     9     3    17 1   
    10     3    24 1   
    11     3    25 1   
    12     4     5 ar  
    13     4     9 ar  
    14     4    38 1   
    15     5     6 ar  
    16     5    26 1   
    17     6     7 ar  
    18     6    21 1   
    19     7     8 ar  
    20     7    10 1   
    21     8     9 ar  
    22     8    27 1   
    23     9    20 1   
    24    10    11 1   
    25    10    28 1   
    26    10    29 1   
    27    11    12 1   
    28    11    19 1   
    29    11    30 1   
    30    12    31 1   
    31    12    32 1   
    32    15    16 1   
    33    15    18 2   
    34    16    17 1   
    35    16    33 1   
    36    17    34 1   
    37    17    35 1   
    38    19    36 1   
    39    19    37 1   
@<TRIPOS>SUBSTRUCTURE
     1 8O3         1 TEMP              0 ****  ****    0 ROOT
