@<TRIPOS>MOLECULE
8O3
   38    39     1     0     0
SMALL
bcc


@<TRIPOS>ATOM
      1 C10         -2.2590    -0.8110     0.5490 c          1 8O3       0.692100
      2 C13         -4.1340    -0.2580    -0.9940 c6         1 8O3       0.015000
      3 C17         -4.5900    -1.1840     1.1870 c6         1 8O3       0.078000
      4 C01          5.1620     0.3570     0.1950 ca         1 8O3       0.126900
      5 C02          4.4570     1.4830    -0.1690 ca         1 8O3      -0.188000
      6 C03          3.1590     1.3250    -0.6190 ca         1 8O3       0.140900
      7 C04          2.5350     0.0910    -0.7260 ca         1 8O3      -0.110300
      8 C05          3.2820    -1.0240    -0.3490 ca         1 8O3      -0.121000
      9 C06          4.5760    -0.8940     0.1040 ca         1 8O3       0.087900
     10 C07          1.1100    -0.0640    -1.1700 c3         1 8O3      -0.073100
     11 C08          0.1400    -0.1740     0.0250 c3         1 8O3       0.180500
     12 C09         -1.2830    -0.3160    -0.5000 c3         1 8O3      -0.148400
     13 N11         -3.5820    -0.6960     0.2680 n          1 8O3      -0.488800
     14 O12         -1.8740    -1.3180     1.5920 o          1 8O3      -0.583100
     15 C14         -5.4120     0.5540    -0.8630 c          1 8O3       0.698500
     16 N15         -5.9940     0.6050     0.3400 ns         1 8O3      -0.569900
     17 C16         -5.5160    -0.0430     1.5450 c6         1 8O3       0.096000
     18 O18         -5.8710     1.1040    -1.8550 o          1 8O3      -0.643500
     19 N19          0.1950     0.9360     0.9570 n8         1 8O3      -0.879800
     20 F20          5.2830    -1.9730     0.4560 f          1 8O3      -0.118900
     21 F22          2.4860     2.4320    -0.9700 f          1 8O3      -0.136900
     22 H132        -3.4300     0.3620    -1.5430 h1         1 8O3       0.071700
     23 H131        -4.3670    -1.1160    -1.6370 h1         1 8O3       0.071700
     24 H171        -5.1520    -1.9960     0.7150 h1         1 8O3       0.070200
     25 H172        -4.1210    -1.5770     2.0830 h1         1 8O3       0.070200
     26 H021         4.9090     2.4640    -0.1010 ha         1 8O3       0.174000
     27 H051         2.8450    -2.0130    -0.4180 ha         1 8O3       0.160000
     28 H071         0.8130     0.7700    -1.8100 hc         1 8O3       0.060700
     29 H072         1.0260    -0.9670    -1.7800 hc         1 8O3       0.060700
     30 H1           0.4030    -1.0780     0.5790 h1         1 8O3       0.082700
     31 H092        -1.3090    -1.0130    -1.3440 hc         1 8O3       0.061700
     32 H091        -1.5990     0.6500    -0.9020 hc         1 8O3       0.061700
     33 H2          -6.8310     1.1660     0.4100 hn         1 8O3       0.320500
     34 H161        -6.3730    -0.4240     2.1000 h1         1 8O3       0.053200
     35 H162        -4.9960     0.6740     2.1860 h1         1 8O3       0.053200
     36 H3           1.0900     0.9570     1.4300 hn         1 8O3       0.345300
     37 H4           0.1180     1.8140     0.4570 hn         1 8O3       0.345300
     38 F21          6.4180     0.4620     0.6350 f          1 8O3      -0.115900
@<TRIPOS>BOND
     1     1    12 1   
     2     1    13 1   
     3     1    14 2   
     4     2    13 1   
     5     2    15 1   
     6     2    22 1   
     7     2    23 1   
     8     3    13 1   
     9     3    17 1   
    10     3    24 1   
    11     3    25 1   
    12     4     5 ar  
    13     4     9 ar  
    14     4    38 1   
    15     5     6 ar  
    16     5    26 1   
    17     6     7 ar  
    18     6    21 1   
    19     7     8 ar  
    20     7    10 1   
    21     8     9 ar  
    22     8    27 1   
    23     9    20 1   
    24    10    11 1   
    25    10    28 1   
    26    10    29 1   
    27    11    12 1   
    28    11    19 1   
    29    11    30 1   
    30    12    31 1   
    31    12    32 1   
    32    15    16 1   
    33    15    18 2   
    34    16    17 1   
    35    16    33 1   
    36    17    34 1   
    37    17    35 1   
    38    19    36 1   
    39    19    37 1   
@<TRIPOS>SUBSTRUCTURE
     1 8O3         1 TEMP              0 ****  ****    0 ROOT
