@<TRIPOS>MOLECULE
8O4
   51    55     1     0     0
SMALL
bcc


@<TRIPOS>ATOM
      1 C4           3.6660     0.0560     2.3700 cc         1 8O4      -0.106300
      2 C5          -0.1050    -0.2960    -0.0710 ca         1 8O4      -0.036800
      3 C6           2.1700     0.4980     0.7750 cd         1 8O4      -0.033800
      4 C7           2.4590    -0.3630     1.8590 cd         1 8O4      -0.197300
      5 C8          -2.4820    -0.5640    -0.5500 ca         1 8O4      -0.093300
      6 C10          3.2160     1.4030     0.6740 cc         1 8O4      -0.201900
      7 C13          3.3370     2.4030    -0.3370 c          1 8O4       0.735100
      8 C15          2.1240    -3.8570    -2.2230 cx         1 8O4      -0.130400
      9 C17          1.4330    -3.6420    -0.9100 cx         1 8O4      -0.128700
     10 C20         -3.7570     0.0120    -1.0770 c3         1 8O4      -0.114300
     11 C1          -2.4550    -1.8370     0.0080 ca         1 8O4      -0.102000
     12 C2          -1.2700    -2.3240     0.5260 ca         1 8O4      -0.108000
     13 C3          -1.3210     0.1930    -0.5590 ca         1 8O4      -0.103000
     14 C9          -0.0920    -1.5830     0.5000 ca         1 8O4       0.142600
     15 C11          1.2290     1.4910    -1.1410 cc         1 8O4      -0.010400
     16 C12          1.0940     0.5560    -0.1620 cd         1 8O4      -0.052400
     17 C14          1.6300    -1.5540     2.2160 c3         1 8O4       0.276100
     18 C16          0.8280    -3.1090    -2.1720 cx         1 8O4      -0.130400
     19 C19         -6.0830     1.4930    -0.5040 c3         1 8O4      -0.231300
     20 N22          4.1090     1.1260     1.6630 na         1 8O4      -0.126100
     21 N23          1.0600    -2.2100     1.0500 nh         1 8O4      -0.659000
     22 N24          2.2840     2.3630    -1.2350 n          1 8O4      -0.343000
     23 O25          4.2650     3.2040    -0.4280 o          1 8O4      -0.649500
     24 O26         -5.0400    -0.1890     1.2430 o          1 8O4      -0.581300
     25 O27         -3.8040     1.9350     0.7560 o          1 8O4      -0.581300
     26 S28         -4.6300     0.8280     0.2750 s6         1 8O4       0.991000
     27 H4           4.2460    -0.3450     3.1860 h4         1 8O4       0.168000
     28 H152         2.1270    -4.8570    -2.6390 hc         1 8O4       0.070200
     29 H17          0.9490    -4.5090    -0.4730 hc         1 8O4       0.083700
     30 H1          -3.3510    -2.4440     0.0340 ha         1 8O4       0.142000
     31 H2          -1.2340    -3.3140     0.9630 ha         1 8O4       0.147000
     32 H3          -1.3650     1.1990    -0.9570 ha         1 8O4       0.132000
     33 H11          0.5000     1.5990    -1.9320 h4         1 8O4       0.148000
     34 H142         2.2370    -2.2810     2.7630 h1         1 8O4       0.060200
     35 H141         0.8060    -1.2830     2.8810 h1         1 8O4       0.060200
     36 H162         0.8520    -2.0360    -2.3250 hc         1 8O4       0.070200
     37 H161        -0.0640    -3.5890    -2.5530 hc         1 8O4       0.070200
     38 H22          4.9730     1.6170     1.8250 hn         1 8O4       0.316700
     39 H7          -3.5900     0.7670    -1.8460 h1         1 8O4       0.094700
     40 H8          -4.4280    -0.7520    -1.4710 h1         1 8O4       0.094700
     41 H9          -6.6600     0.6840    -0.9450 h1         1 8O4       0.102367
     42 H10         -6.6670     1.9890     0.2690 h1         1 8O4       0.102367
     43 H12         -5.7900     2.2110    -1.2670 h1         1 8O4       0.102367
     44 C21          2.0400    -2.6940     0.0870 c3         1 8O4       0.225800
     45 C18          2.2680     3.2960    -2.3550 c3         1 8O4       0.071300
     46 H151         3.0300    -3.2950    -2.4190 hc         1 8O4       0.070200
     47 H211         2.8160    -3.2120     0.6600 h1         1 8O4       0.039700
     48 H212         2.5470    -1.8820    -0.4560 h1         1 8O4       0.039700
     49 H183         3.1500     3.9240    -2.3180 h1         1 8O4       0.055033
     50 H181         2.2630     2.7510    -3.2970 h1         1 8O4       0.055033
     51 H182         1.3820     3.9270    -2.3050 h1         1 8O4       0.055033
@<TRIPOS>BOND
     1     1     4 2   
     2     1    20 1   
     3     1    27 1   
     4     2    13 ar  
     5     2    14 ar  
     6     2    16 1   
     7     3     4 1   
     8     3     6 2   
     9     3    16 1   
    10     4    17 1   
    11     5    10 1   
    12     5    11 ar  
    13     5    13 ar  
    14     6     7 1   
    15     6    20 1   
    16     7    22 1   
    17     7    23 2   
    18     8     9 1   
    19     8    18 1   
    20     8    28 1   
    21     8    46 1   
    22     9    18 1   
    23     9    29 1   
    24     9    44 1   
    25    10    26 1   
    26    10    39 1   
    27    10    40 1   
    28    11    12 ar  
    29    11    30 1   
    30    12    14 ar  
    31    12    31 1   
    32    13    32 1   
    33    14    21 1   
    34    15    16 2   
    35    15    22 1   
    36    15    33 1   
    37    17    21 1   
    38    17    34 1   
    39    17    35 1   
    40    18    36 1   
    41    18    37 1   
    42    19    26 1   
    43    19    41 1   
    44    19    42 1   
    45    19    43 1   
    46    20    38 1   
    47    21    44 1   
    48    22    45 1   
    49    24    26 2   
    50    25    26 2   
    51    44    47 1   
    52    44    48 1   
    53    45    49 1   
    54    45    50 1   
    55    45    51 1   
@<TRIPOS>SUBSTRUCTURE
     1 8O4         1 TEMP              0 ****  ****    0 ROOT
