@<TRIPOS>MOLECULE
8O4
   51    55     1     0     0
SMALL
No Charge or Current Charge


@<TRIPOS>ATOM
      1 C4           3.8270    -0.1970     1.9440 cc         1 8O4      -0.139000
      2 C5          -0.2710    -0.3470    -0.0250 ca         1 8O4      -0.036800
      3 C6           2.2060     0.3820     0.4860 cd         1 8O4      -0.033800
      4 C7           2.5440    -0.4850     1.5510 cd         1 8O4      -0.197300
      5 C8          -2.7150    -0.5880    -0.3160 ca         1 8O4      -0.093300
      6 C10          3.2660     1.2040     0.2240 cc         1 8O4      -0.252600
      7 C13          3.2610     2.2370    -0.8160 c          1 8O4       0.592600
      8 C15          2.7740    -3.7380    -1.9590 cx         1 8O4      -0.130400
      9 C17          1.6620    -3.1130    -1.1470 cx         1 8O4      -0.128700
     10 C20         -4.0430    -0.0150    -0.8030 c3         1 8O4      -0.225100
     11 C1          -2.6740    -1.8520     0.2830 ca         1 8O4      -0.084000
     12 C2          -1.4530    -2.3620     0.7390 ca         1 8O4      -0.090000
     13 C3          -1.5270     0.1480    -0.4690 ca         1 8O4      -0.085000
     14 C9          -0.2600    -1.6290     0.6030 ca         1 8O4       0.281000
     15 C11          0.9600     1.4730    -1.2420 cc         1 8O4      -0.060400
     16 C12          0.9650     0.4710    -0.2700 cd         1 8O4      -0.052400
     17 C14          1.6740    -1.5510     2.1330 c3         1 8O4       0.276100
     18 C16          2.7520    -2.2440    -1.7330 cx         1 8O4      -0.130400
     19 C19         -6.4190     1.5080    -0.4160 c3         1 8O4      -0.342100
     20 N22          4.2680     0.8420     1.1240 na         1 8O4      -0.075000
     21 N23          0.9100    -2.2340     1.0920 nh         1 8O4      -0.797400
     22 N24          2.0460     2.3180    -1.5240 n          1 8O4      -0.276000
     23 O25          4.2240     2.9610    -1.0410 o          1 8O4      -0.574000
     24 O26         -5.3220     0.1070     1.5330 o          1 8O4      -0.510500
     25 O27         -4.1260     2.1840     0.7020 o          1 8O4      -0.510500
     26 S28         -4.9250     0.9830     0.4230 s6         1 8O4       1.071000
     27 H4           4.4490    -0.6370     2.7150 h4         1 8O4       0.150000
     28 H152         2.5310    -4.1040    -2.9530 hc         1 8O4       0.070200
     29 H17          0.6870    -3.0600    -1.6250 hc         1 8O4       0.083700
     30 H1          -3.5840    -2.4360     0.4050 ha         1 8O4       0.124000
     31 H2          -1.4280    -3.3400     1.2110 ha         1 8O4       0.129000
     32 H3          -1.6090     1.1340    -0.9140 ha         1 8O4       0.114000
     33 H11          0.1340     1.6760    -1.9110 h4         1 8O4       0.198000
     34 H142         2.2960    -2.2700     2.6860 h1         1 8O4       0.060200
     35 H141         0.9900    -1.0940     2.8630 h1         1 8O4       0.060200
     36 H162         3.4870    -1.8230    -1.0510 hc         1 8O4       0.070200
     37 H161         2.4880    -1.6020    -2.5690 hc         1 8O4       0.070200
     38 H22          5.1860     1.2760     1.1760 hn         1 8O4       0.367000
     39 H7          -3.8860     0.6360    -1.6710 h1         1 8O4       0.094700
     40 H8          -4.7280    -0.8210    -1.0900 h1         1 8O4       0.094700
     41 H9          -6.9750     0.6090    -0.7030 h1         1 8O4       0.102367
     42 H10         -6.9950     2.1200     0.2860 h1         1 8O4       0.102367
     43 H12         -6.1230     2.0890    -1.2960 h1         1 8O4       0.102367
     44 C21          1.5590    -3.3420     0.3600 c3         1 8O4       0.225800
     45 C18          1.9470     3.3360    -2.5960 c3         1 8O4       0.071300
     46 H151         3.5290    -4.3180    -1.4330 hc         1 8O4       0.070200
     47 H211         0.9970    -4.2700     0.5350 h1         1 8O4       0.039700
     48 H212         2.5720    -3.5060     0.7550 h1         1 8O4       0.039700
     49 H183         2.1250     4.3340    -2.1750 h1         1 8O4       0.055033
     50 H181         2.6990     3.1330    -3.3680 h1         1 8O4       0.055033
     51 H182         0.9530     3.3240    -3.0600 h1         1 8O4       0.055033
@<TRIPOS>BOND
     1     1     4 2   
     2     1    20 1   
     3     1    27 1   
     4     2    13 ar  
     5     2    14 ar  
     6     2    16 1   
     7     3     4 1   
     8     3     6 2   
     9     3    16 1   
    10     4    17 1   
    11     5    10 1   
    12     5    11 ar  
    13     5    13 ar  
    14     6     7 1   
    15     6    20 1   
    16     7    22 1   
    17     7    23 2   
    18     8     9 1   
    19     8    18 1   
    20     8    28 1   
    21     8    46 1   
    22     9    18 1   
    23     9    29 1   
    24     9    44 1   
    25    10    26 1   
    26    10    39 1   
    27    10    40 1   
    28    11    12 ar  
    29    11    30 1   
    30    12    14 ar  
    31    12    31 1   
    32    13    32 1   
    33    14    21 1   
    34    15    16 2   
    35    15    22 1   
    36    15    33 1   
    37    17    21 1   
    38    17    34 1   
    39    17    35 1   
    40    18    36 1   
    41    18    37 1   
    42    19    26 1   
    43    19    41 1   
    44    19    42 1   
    45    19    43 1   
    46    20    38 1   
    47    21    44 1   
    48    22    45 1   
    49    24    26 2   
    50    25    26 2   
    51    44    47 1   
    52    44    48 1   
    53    45    49 1   
    54    45    50 1   
    55    45    51 1   
@<TRIPOS>SUBSTRUCTURE
     1 8O4         1 TEMP              0 ****  ****    0 ROOT
