@<TRIPOS>MOLECULE
8O5
   75    78     1     0     0
SMALL
No Charge or Current Charge


@<TRIPOS>ATOM
      1 C10          9.9030    -0.0290    -0.9650 ca         1 8O5      -0.115000
      2 O01          4.2240    -0.5430     2.3410 o          1 8O5      -0.617100
      3 C02          3.9950    -0.0150     1.2630 c          1 8O5       0.606300
      4 C03          5.0520     0.2570     0.2530 ce         1 8O5      -0.292200
      5 C05          6.3740    -0.0450     0.4180 cf         1 8O5      -0.078200
      6 C07          7.5090     0.1750    -0.5030 ca         1 8O5      -0.074800
      7 C16          7.3350     0.7740    -1.7690 ca         1 8O5      -0.087000
      8 C14          8.4360     0.9700    -2.6230 ca         1 8O5      -0.115000
      9 C12          9.7200     0.5690    -2.2220 ca         1 8O5      -0.096000
     10 C08          8.8040    -0.2240    -0.1110 ca         1 8O5      -0.087000
     11 N18          2.7350     0.3730     0.8760 ns         1 8O5      -0.485900
     12 C20          1.5070     0.2340     1.6950 c3         1 8O5       0.042700
     13 C22          1.1740     1.5550     2.4410 c3         1 8O5      -0.064400
     14 C25          2.2330     1.9860     3.4530 cx         1 8O5      -0.129700
     15 C26          1.8620     2.8040     4.6670 cx         1 8O5      -0.128900
     16 C34          2.2940     1.3630     4.8280 cx         1 8O5      -0.128900
     17 C36          0.3150    -0.2170     0.8010 c          1 8O5       0.599100
     18 O37          0.3360    -0.1640    -0.4240 o          1 8O5      -0.606100
     19 N38         -0.7830    -0.6890     1.4880 ns         1 8O5      -0.500900
     20 C40         -2.0290    -1.1610     0.8710 c3         1 8O5       0.097700
     21 C42         -1.9370    -2.6810     0.5630 c3         1 8O5      -0.076400
     22 C45         -3.1640    -3.3070    -0.1730 c5         1 8O5      -0.151700
     23 C47         -3.6040    -2.4520    -1.3650 c          1 8O5       0.566000
     24 O48         -4.3500    -1.4860    -1.3800 o          1 8O5      -0.586000
     25 N49         -3.1690    -3.0990    -2.4860 ns         1 8O5      -0.504900
     26 C51         -2.3630    -4.2920    -2.2270 c5         1 8O5       0.098000
     27 C54         -2.8800    -4.6930    -0.8150 c5         1 8O5      -0.091400
     28 C57         -3.2700    -0.7480     1.7230 c3         1 8O5       0.074300
     29 O58         -3.0260    -0.9910     3.1370 oh         1 8O5      -0.659000
     30 C66         -3.6440     0.7380     1.4550 c          1 8O5       0.570100
     31 O67         -3.4370     1.6240     2.2760 o          1 8O5      -0.633100
     32 N68         -4.2730     0.9840     0.2560 ns         1 8O5      -0.485900
     33 C70         -4.7040     2.3020    -0.1920 c3         1 8O5       0.151300
     34 C73         -5.1650     2.2560    -1.6400 ca         1 8O5      -0.116300
     35 C74         -6.5350     2.1420    -1.9480 ca         1 8O5      -0.093000
     36 C76         -4.2220     2.3150    -2.6850 ca         1 8O5      -0.093000
     37 C78         -4.6450     2.2650    -4.0240 ca         1 8O5      -0.112500
     38 C80         -6.0130     2.1550    -4.3270 ca         1 8O5      -0.105000
     39 C82         -6.9570     2.0930    -3.2880 ca         1 8O5      -0.112500
     40 H1          10.8970    -0.3400    -0.6520 ha         1 8O5       0.114500
     41 H2           4.7170     0.7290    -0.6660 ha         1 8O5       0.177000
     42 H3           6.6580    -0.5180     1.3620 ha         1 8O5       0.196000
     43 H4           6.3530     1.0940    -2.1040 ha         1 8O5       0.114000
     44 H5           8.2910     1.4330    -3.5970 ha         1 8O5       0.114500
     45 H6          10.5710     0.7200    -2.8840 ha         1 8O5       0.114000
     46 H7           8.9640    -0.6890     0.8600 ha         1 8O5       0.114000
     47 H8           2.6430     0.7630    -0.0540 hn         1 8O5       0.323500
     48 H9           1.6590    -0.5610     2.4360 h1         1 8O5       0.072700
     49 H10          1.0290     2.3550     1.7040 hc         1 8O5       0.067200
     50 H11          0.2100     1.4400     2.9540 hc         1 8O5       0.067200
     51 H12          3.1850     2.2290     2.9850 hc         1 8O5       0.074700
     52 H13          2.5550     3.5790     4.9860 hc         1 8O5       0.072700
     53 H14          0.8120     3.0380     4.8280 hc         1 8O5       0.072700
     54 H15          1.5340     0.6330     5.0940 hc         1 8O5       0.072700
     55 H16          3.2770     1.1710     5.2510 hc         1 8O5       0.072700
     56 H17         -0.7220    -0.7150     2.4990 hn         1 8O5       0.322500
     57 H18         -2.1200    -0.6490    -0.0980 h1         1 8O5       0.095700
     58 H19         -1.0360    -2.8400    -0.0420 hc         1 8O5       0.061700
     59 H20         -1.7650    -3.2220     1.5020 hc         1 8O5       0.061700
     60 H21         -3.9830    -3.3460     0.5530 hc         1 8O5       0.085700
     61 H22         -3.4140    -2.7260    -3.3950 hn         1 8O5       0.330500
     62 H23         -2.5280    -5.0870    -2.9660 h1         1 8O5       0.048700
     63 H24         -1.2910    -4.0520    -2.2100 h1         1 8O5       0.048700
     64 H25         -2.1610    -5.3000    -0.2530 hc         1 8O5       0.060200
     65 H26         -3.8040    -5.2780    -0.8990 hc         1 8O5       0.060200
     66 H27         -4.1440    -1.3220     1.3940 h1         1 8O5       0.086700
     67 H28         -3.1200    -0.1160     3.5830 ho         1 8O5       0.472000
     68 H29         -4.4230     0.1930    -0.3690 hn         1 8O5       0.347500
     69 H30         -5.5200     2.6500     0.4540 h1         1 8O5       0.057700
     70 H31         -3.8670     3.0070    -0.0930 h1         1 8O5       0.057700
     71 H32         -7.2730     2.0900    -1.1500 ha         1 8O5       0.123000
     72 H33         -3.1610     2.3980    -2.4590 ha         1 8O5       0.123000
     73 H34         -3.9130     2.3110    -4.8280 ha         1 8O5       0.113500
     74 H35         -6.3400     2.1160    -5.3640 ha         1 8O5       0.110000
     75 H36         -8.0160     2.0050    -3.5210 ha         1 8O5       0.113500
@<TRIPOS>BOND
     1     1     9 ar  
     2     1    10 ar  
     3     1    40 1   
     4     2     3 2   
     5     3     4 1   
     6     3    11 1   
     7     4     5 2   
     8     4    41 1   
     9     5     6 1   
    10     5    42 1   
    11     6     7 ar  
    12     6    10 ar  
    13     7     8 ar  
    14     7    43 1   
    15     8     9 ar  
    16     8    44 1   
    17     9    45 1   
    18    10    46 1   
    19    11    12 1   
    20    11    47 1   
    21    12    13 1   
    22    12    17 1   
    23    12    48 1   
    24    13    14 1   
    25    13    49 1   
    26    13    50 1   
    27    14    15 1   
    28    14    16 1   
    29    14    51 1   
    30    15    16 1   
    31    15    52 1   
    32    15    53 1   
    33    16    54 1   
    34    16    55 1   
    35    17    18 2   
    36    17    19 1   
    37    19    20 1   
    38    19    56 1   
    39    20    21 1   
    40    20    28 1   
    41    20    57 1   
    42    21    22 1   
    43    21    58 1   
    44    21    59 1   
    45    22    23 1   
    46    22    27 1   
    47    22    60 1   
    48    23    24 2   
    49    23    25 1   
    50    25    26 1   
    51    25    61 1   
    52    26    27 1   
    53    26    62 1   
    54    26    63 1   
    55    27    64 1   
    56    27    65 1   
    57    28    29 1   
    58    28    30 1   
    59    28    66 1   
    60    29    67 1   
    61    30    31 2   
    62    30    32 1   
    63    32    33 1   
    64    32    68 1   
    65    33    34 1   
    66    33    69 1   
    67    33    70 1   
    68    34    35 ar  
    69    34    36 ar  
    70    35    39 ar  
    71    35    71 1   
    72    36    37 ar  
    73    36    72 1   
    74    37    38 ar  
    75    37    73 1   
    76    38    39 ar  
    77    38    74 1   
    78    39    75 1   
@<TRIPOS>SUBSTRUCTURE
     1 8O5         1 TEMP              0 ****  ****    0 ROOT
