@<TRIPOS>MOLECULE
8O5
   75    78     1     0     0
SMALL
abcg2


@<TRIPOS>ATOM
      1 C10          8.3730    -0.9010    -2.4160 ca         1 8O5      -0.115000
      2 O01          2.7940    -1.1110     0.7960 o          1 8O5      -0.617100
      3 C02          3.0820     0.0700     0.6400 c          1 8O5       0.606300
      4 C03          4.2910     0.5290    -0.0770 ce         1 8O5      -0.292200
      5 C05          5.1490    -0.3500    -0.6020 cf         1 8O5      -0.078200
      6 C07          6.3880    -0.0530    -1.3140 ca         1 8O5      -0.074800
      7 C16          6.8270     1.2500    -1.5740 ca         1 8O5      -0.087000
      8 C14          8.0200     1.4700    -2.2410 ca         1 8O5      -0.115000
      9 C12          8.7980     0.3960    -2.6640 ca         1 8O5      -0.096000
     10 C08          7.1770    -1.1210    -1.7480 ca         1 8O5      -0.087000
     11 N18          2.3120     1.0560     1.1370 ns         1 8O5      -0.485900
     12 C20          1.0890     0.7670     1.8330 c3         1 8O5       0.042700
     13 C22          0.4840     2.0530     2.4040 c3         1 8O5      -0.064400
     14 C25          1.3270     2.6530     3.5000 cx         1 8O5      -0.129700
     15 C26          0.6660     3.4150     4.6050 cx         1 8O5      -0.128900
     16 C34          1.2580     2.0630     4.8750 cx         1 8O5      -0.128900
     17 C36          0.0730     0.1070     0.9010 c          1 8O5       0.599100
     18 O37         -0.0220     0.4260    -0.2730 o          1 8O5      -0.606100
     19 N38         -0.7290    -0.7760     1.5160 ns         1 8O5      -0.500900
     20 C40         -1.8640    -1.4280     0.9050 c3         1 8O5       0.097700
     21 C42         -1.5880    -2.9180     0.7100 c3         1 8O5      -0.076400
     22 C45         -2.7360    -3.7210     0.0820 c5         1 8O5      -0.151700
     23 C47         -3.2040    -3.1000    -1.2280 c          1 8O5       0.566000
     24 O48         -3.8880    -2.0910    -1.3560 o          1 8O5      -0.586000
     25 N49         -2.7140    -3.8430    -2.2290 ns         1 8O5      -0.504900
     26 C51         -1.8990    -4.9650    -1.8150 c5         1 8O5       0.098000
     27 C54         -2.2880    -5.1230    -0.3420 c5         1 8O5      -0.091400
     28 C57         -3.1150    -1.1450     1.7580 c3         1 8O5       0.074300
     29 O58         -2.9140    -1.5160     3.0900 oh         1 8O5      -0.659000
     30 C66         -3.4550     0.3390     1.6700 c          1 8O5       0.570100
     31 O67         -3.2550     1.0790     2.6250 o          1 8O5      -0.633100
     32 N68         -3.9410     0.7320     0.4900 ns         1 8O5      -0.485900
     33 C70         -4.2420     2.1070     0.1530 c3         1 8O5       0.151300
     34 C73         -4.0640     2.3430    -1.3240 ca         1 8O5      -0.116300
     35 C74         -5.0800     2.9280    -2.0710 ca         1 8O5      -0.093000
     36 C76         -2.8780     1.9820    -1.9620 ca         1 8O5      -0.093000
     37 C78         -2.7160     2.2050    -3.3210 ca         1 8O5      -0.112500
     38 C80         -3.7350     2.7930    -4.0620 ca         1 8O5      -0.105000
     39 C82         -4.9170     3.1560    -3.4330 ca         1 8O5      -0.112500
     40 H1           8.9710    -1.7420    -2.7400 ha         1 8O5       0.114500
     41 H2           4.4570     1.5990    -0.1480 ha         1 8O5       0.177000
     42 H3           4.9210    -1.4060    -0.4890 ha         1 8O5       0.196000
     43 H4           6.2380     2.1010    -1.2570 ha         1 8O5       0.114000
     44 H5           8.3480     2.4830    -2.4330 ha         1 8O5       0.114500
     45 H6           9.7300     0.5740    -3.1850 ha         1 8O5       0.114000
     46 H7           6.8480    -2.1350    -1.5560 ha         1 8O5       0.114000
     47 H8           2.5330     2.0150     0.9170 hn         1 8O5       0.323500
     48 H9           1.3050     0.0890     2.6670 h1         1 8O5       0.072700
     49 H10          0.3370     2.7760     1.5950 hc         1 8O5       0.067200
     50 H11         -0.5110     1.8210     2.7940 hc         1 8O5       0.067200
     51 H12          2.2990     3.0220     3.1900 hc         1 8O5       0.074700
     52 H13          1.1710     4.2850     5.0030 hc         1 8O5       0.072700
     53 H14         -0.4140     3.5010     4.5860 hc         1 8O5       0.072700
     54 H15          0.5760     1.2360     5.0340 hc         1 8O5       0.072700
     55 H16          2.1670     2.0070     5.4600 hc         1 8O5       0.072700
     56 H17         -0.5190    -1.0260     2.4700 hn         1 8O5       0.322500
     57 H18         -1.9980    -0.9690    -0.0730 h1         1 8O5       0.095700
     58 H19         -0.6940    -3.0060     0.0860 hc         1 8O5       0.061700
     59 H20         -1.3420    -3.3810     1.6700 hc         1 8O5       0.061700
     60 H21         -3.5740    -3.7700     0.7800 hc         1 8O5       0.085700
     61 H22         -2.8110    -3.5680    -3.1940 hn         1 8O5       0.330500
     62 H23         -2.1290    -5.8530    -2.4030 h1         1 8O5       0.048700
     63 H24         -0.8350    -4.7470    -1.9420 h1         1 8O5       0.048700
     64 H25         -1.4670    -5.5080     0.2630 hc         1 8O5       0.060200
     65 H26         -3.1210    -5.8210    -0.2550 hc         1 8O5       0.060200
     66 H27         -3.9580    -1.7120     1.3480 h1         1 8O5       0.086700
     67 H28         -2.8250    -0.6980     3.6000 ho         1 8O5       0.472000
     68 H29         -4.1440     0.0220    -0.2010 hn         1 8O5       0.347500
     69 H30         -5.2610     2.3670     0.4520 h1         1 8O5       0.057700
     70 H31         -3.5700     2.7530     0.7210 h1         1 8O5       0.057700
     71 H32         -6.0080     3.2080    -1.5880 ha         1 8O5       0.123000
     72 H33         -2.0760     1.5210    -1.3970 ha         1 8O5       0.123000
     73 H34         -1.7910     1.9180    -3.8050 ha         1 8O5       0.113500
     74 H35         -3.6070     2.9650    -5.1230 ha         1 8O5       0.110000
     75 H36         -5.7190     3.6110    -4.0000 ha         1 8O5       0.113500
@<TRIPOS>BOND
     1     1     9 ar  
     2     1    10 ar  
     3     1    40 1   
     4     2     3 2   
     5     3     4 1   
     6     3    11 1   
     7     4     5 2   
     8     4    41 1   
     9     5     6 1   
    10     5    42 1   
    11     6     7 ar  
    12     6    10 ar  
    13     7     8 ar  
    14     7    43 1   
    15     8     9 ar  
    16     8    44 1   
    17     9    45 1   
    18    10    46 1   
    19    11    12 1   
    20    11    47 1   
    21    12    13 1   
    22    12    17 1   
    23    12    48 1   
    24    13    14 1   
    25    13    49 1   
    26    13    50 1   
    27    14    15 1   
    28    14    16 1   
    29    14    51 1   
    30    15    16 1   
    31    15    52 1   
    32    15    53 1   
    33    16    54 1   
    34    16    55 1   
    35    17    18 2   
    36    17    19 1   
    37    19    20 1   
    38    19    56 1   
    39    20    21 1   
    40    20    28 1   
    41    20    57 1   
    42    21    22 1   
    43    21    58 1   
    44    21    59 1   
    45    22    23 1   
    46    22    27 1   
    47    22    60 1   
    48    23    24 2   
    49    23    25 1   
    50    25    26 1   
    51    25    61 1   
    52    26    27 1   
    53    26    62 1   
    54    26    63 1   
    55    27    64 1   
    56    27    65 1   
    57    28    29 1   
    58    28    30 1   
    59    28    66 1   
    60    29    67 1   
    61    30    31 2   
    62    30    32 1   
    63    32    33 1   
    64    32    68 1   
    65    33    34 1   
    66    33    69 1   
    67    33    70 1   
    68    34    35 ar  
    69    34    36 ar  
    70    35    39 ar  
    71    35    71 1   
    72    36    37 ar  
    73    36    72 1   
    74    37    38 ar  
    75    37    73 1   
    76    38    39 ar  
    77    38    74 1   
    78    39    75 1   
@<TRIPOS>SUBSTRUCTURE
     1 8O5         1 TEMP              0 ****  ****    0 ROOT
