@<TRIPOS>MOLECULE
8O7
   55    58     1     0     0
SMALL
abcg2


@<TRIPOS>ATOM
      1 C1          -7.8830    -3.0780     0.2020 c3         1 8O7       0.148800
      2 N1          -7.4370    -4.0330     1.2010 n8         1 8O7      -1.001200
      3 C2          -7.1670    -1.7530     0.4200 c3         1 8O7       0.196800
      4 N3          -7.5740    -0.8050    -0.6130 n7         1 8O7      -0.867300
      5 S4          -7.2110     0.7870    -0.4250 sy         1 8O7       1.152600
      6 O5          -7.6240     1.4440    -1.6540 o          1 8O7      -0.530500
      7 O6          -7.7690     1.2080     0.8490 o          1 8O7      -0.530500
      8 C7          -5.4470     0.8930    -0.2990 ca         1 8O7      -0.310500
      9 C8          -4.8430     0.9400     0.9500 ca         1 8O7      -0.015500
     10 C9          -3.4620     0.9670     1.0340 ca         1 8O7      -0.122000
     11 C10         -2.6710     0.9450    -0.1150 cp         1 8O7       0.019000
     12 C11         -3.3040     0.9040    -1.3610 ca         1 8O7      -0.122000
     13 C12         -4.6830     0.8780    -1.4590 ca         1 8O7      -0.015500
     14 C13         -1.1990     0.9580    -0.0170 cp         1 8O7      -0.039000
     15 C14         -0.5500     0.2820     1.0170 ca         1 8O7      -0.094500
     16 C15          0.8310     0.2890     1.1110 ca         1 8O7      -0.090000
     17 C16          1.6020     0.9780     0.1800 ca         1 8O7      -0.086300
     18 C17          0.9600     1.6520    -0.8540 ca         1 8O7      -0.090000
     19 C18         -0.4220     1.6440    -0.9510 ca         1 8O7      -0.094500
     20 C19          3.0980     0.9660     0.2740 c3         1 8O7       0.122900
     21 S20          3.6690    -0.4760    -0.6840 ss         1 8O7      -0.262200
     22 C21          5.3980    -0.3980    -0.4310 cc         1 8O7       0.518800
     23 N22          5.9320     0.5300     0.2960 nd         1 8O7      -0.652300
     24 C23          7.2820     0.4760     0.4050 cd         1 8O7       0.180400
     25 C24          8.0820    -0.4590    -0.1720 cc         1 8O7      -0.270400
     26 C25          7.5020    -1.4980    -0.9610 c          1 8O7       0.579200
     27 N26          6.1110    -1.3710    -1.0440 ns         1 8O7      -0.400400
     28 O27          8.0740    -2.4160    -1.5280 o          1 8O7      -0.538000
     29 C28          9.5230    -0.2570     0.1700 c5         1 8O7      -0.009200
     30 C29          9.5250     1.1700     0.7610 c5         1 8O7      -0.082400
     31 C30          8.0830     1.4400     1.2240 c5         1 8O7      -0.037200
     32 H1          -7.7260    -3.4100    -0.8340 h1         1 8O7       0.039700
     33 H2          -8.9560    -2.9190     0.3220 h1         1 8O7       0.039700
     34 H3          -8.0300    -4.8510     1.1770 hn         1 8O7       0.398000
     35 H4          -6.5070    -4.3600     0.9710 hn         1 8O7       0.398000
     36 H6          -7.4450    -1.3550     1.3950 h1         1 8O7       0.059200
     37 H7          -6.0810    -1.9080     0.4170 h1         1 8O7       0.059200
     38 H8          -7.3780    -1.1220    -1.5580 hn         1 8O7       0.476000
     39 H9          -5.4360     0.9690     1.8540 ha         1 8O7       0.136500
     40 H10         -2.9990     1.0270     2.0110 ha         1 8O7       0.122000
     41 H11         -2.7140     0.8720    -2.2670 ha         1 8O7       0.122000
     42 H12         -5.1480     0.8420    -2.4350 ha         1 8O7       0.136500
     43 H13         -1.1250    -0.2730     1.7480 ha         1 8O7       0.121000
     44 H14          1.3150    -0.2480     1.9170 ha         1 8O7       0.122000
     45 H15          1.5420     2.1970    -1.5870 ha         1 8O7       0.122000
     46 H16         -0.8970     2.1970    -1.7520 ha         1 8O7       0.121000
     47 H17          3.5410     1.8650    -0.1500 h1         1 8O7       0.090700
     48 H18          3.4380     0.8580     1.3020 h1         1 8O7       0.090700
     49 H19          9.8560    -0.9980     0.9030 hc         1 8O7       0.060200
     50 H20         10.2500     1.2850     1.5650 hc         1 8O7       0.049200
     51 H21          7.7690     2.4740     1.0770 hc         1 8O7       0.066200
     52 H5           5.6290    -2.0710    -1.5960 hn         1 8O7       0.338500
     53 H22         10.1850    -0.3480    -0.6920 hc         1 8O7       0.060200
     54 H23          9.7900     1.8820    -0.0220 hc         1 8O7       0.049200
     55 H24          7.9420     1.2140     2.2860 hc         1 8O7       0.066200
@<TRIPOS>BOND
     1     1     2 1   
     2     1     3 1   
     3     1    32 1   
     4     1    33 1   
     5     2    34 1   
     6     2    35 1   
     7     3     4 1   
     8     3    36 1   
     9     3    37 1   
    10     4     5 1   
    11     4    38 1   
    12     5     6 2   
    13     5     7 2   
    14     5     8 1   
    15     8     9 ar  
    16     8    13 ar  
    17     9    10 ar  
    18     9    39 1   
    19    10    11 ar  
    20    10    40 1   
    21    11    12 ar  
    22    11    14 1   
    23    12    13 ar  
    24    12    41 1   
    25    13    42 1   
    26    14    15 ar  
    27    14    19 ar  
    28    15    16 ar  
    29    15    43 1   
    30    16    17 ar  
    31    16    44 1   
    32    17    18 ar  
    33    17    20 1   
    34    18    19 ar  
    35    18    45 1   
    36    19    46 1   
    37    20    21 1   
    38    20    47 1   
    39    20    48 1   
    40    21    22 1   
    41    22    23 2   
    42    22    27 1   
    43    23    24 1   
    44    24    25 2   
    45    24    31 1   
    46    25    26 1   
    47    25    29 1   
    48    26    27 1   
    49    26    28 2   
    50    27    52 1   
    51    29    30 1   
    52    29    49 1   
    53    29    53 1   
    54    30    31 1   
    55    30    50 1   
    56    30    54 1   
    57    31    51 1   
    58    31    55 1   
@<TRIPOS>SUBSTRUCTURE
     1 8O7         1 TEMP              0 ****  ****    0 ROOT
