@<TRIPOS>MOLECULE
8O7
   55    58     1     0     0
SMALL
No Charge or Current Charge


@<TRIPOS>ATOM
      1 C1          -7.6180    -2.9970     0.3670 c3         1 8O7       0.148800
      2 N1          -6.9240    -4.2110    -0.1380 n8         1 8O7      -1.001200
      3 C2          -7.0420    -1.6700    -0.2040 c3         1 8O7       0.196800
      4 N3          -7.7880    -0.5040     0.3170 n7         1 8O7      -0.867300
      5 S4          -7.3920     1.0060    -0.2720 sy         1 8O7       1.152600
      6 O5          -7.8370     1.0170    -1.6670 o          1 8O7      -0.530500
      7 O6          -7.8990     1.9490     0.7280 o          1 8O7      -0.530500
      8 C7          -5.5940     0.9710    -0.1840 ca         1 8O7      -0.310500
      9 C8          -4.9490     1.1400     1.0570 ca         1 8O7      -0.015500
     10 C9          -3.5460     1.1050     1.1310 ca         1 8O7      -0.122000
     11 C10         -2.7520     0.9020    -0.0250 cp         1 8O7       0.019000
     12 C11         -3.4210     0.7340    -1.2630 ca         1 8O7      -0.122000
     13 C12         -4.8240     0.7660    -1.3460 ca         1 8O7      -0.015500
     14 C13         -1.2560     0.8660     0.0580 cp         1 8O7      -0.039000
     15 C14         -0.5980     0.3120     1.1840 ca         1 8O7      -0.094500
     16 C15          0.8050     0.2760     1.2630 ca         1 8O7      -0.090000
     17 C16          1.5880     0.7980     0.2170 ca         1 8O7      -0.086300
     18 C17          0.9530     1.3500    -0.9090 ca         1 8O7      -0.090000
     19 C18         -0.4500     1.3840    -0.9870 ca         1 8O7      -0.094500
     20 C19          3.1080     0.7580     0.3010 c3         1 8O7       0.122900
     21 S20          3.7570    -0.8100    -0.4400 ss         1 8O7      -0.262200
     22 C21          5.5010    -0.6730    -0.2540 cc         1 8O7       0.518800
     23 N22          5.9330     0.4400     0.3350 nd         1 8O7      -0.652300
     24 C23          7.3150     0.5260     0.4690 cd         1 8O7       0.180400
     25 C24          8.1610    -0.4550     0.0330 cc         1 8O7      -0.270400
     26 C25          7.6600    -1.6660    -0.6080 c          1 8O7       0.579200
     27 N26          6.3130    -1.6740    -0.7020 ns         1 8O7      -0.400400
     28 O27          8.3530    -2.5820    -1.0200 o          1 8O7      -0.538000
     29 C28          9.5980    -0.1140     0.2960 c5         1 8O7      -0.009200
     30 C29          9.5730     1.4180     0.5850 c5         1 8O7      -0.082400
     31 C30          8.1090     1.6450     1.0940 c5         1 8O7      -0.037200
     32 H1          -8.6840    -3.0730     0.1100 h1         1 8O7       0.039700
     33 H2          -7.5330    -2.9790     1.4620 h1         1 8O7       0.039700
     34 H3          -7.3740    -5.0440     0.2620 hn         1 8O7       0.398000
     35 H4          -7.1000    -4.3070    -1.1460 hn         1 8O7       0.398000
     36 H6          -5.9820    -1.6110     0.0760 h1         1 8O7       0.059200
     37 H7          -7.0950    -1.7050    -1.3020 h1         1 8O7       0.059200
     38 H8          -8.7600    -0.5680     0.0190 hn         1 8O7       0.476000
     39 H9          -5.5300     1.2960     1.9640 ha         1 8O7       0.136500
     40 H10         -3.0700     1.2510     2.0970 ha         1 8O7       0.122000
     41 H11         -2.8480     0.5610    -2.1700 ha         1 8O7       0.122000
     42 H12         -5.3040     0.6270    -2.3140 ha         1 8O7       0.136500
     43 H13         -1.1790    -0.1100     2.0010 ha         1 8O7       0.121000
     44 H14          1.2830    -0.1610     2.1370 ha         1 8O7       0.122000
     45 H15          1.5450     1.7560    -1.7260 ha         1 8O7       0.122000
     46 H16         -0.9160     1.8290    -1.8630 ha         1 8O7       0.121000
     47 H17          3.5330     1.6160    -0.2360 h1         1 8O7       0.090700
     48 H18          3.4250     0.8220     1.3500 h1         1 8O7       0.090700
     49 H19          9.9730    -0.6750     1.1610 hc         1 8O7       0.060200
     50 H20         10.3330     1.7300     1.3110 hc         1 8O7       0.049200
     51 H21          7.7320     2.6340     0.8110 hc         1 8O7       0.066200
     52 H5           5.8980    -2.4840    -1.1360 hn         1 8O7       0.338500
     53 H22         10.2460    -0.3580    -0.5530 hc         1 8O7       0.060200
     54 H23          9.7500     1.9840    -0.3380 hc         1 8O7       0.049200
     55 H24          8.0610     1.5890     2.1870 hc         1 8O7       0.066200
@<TRIPOS>BOND
     1     1     2 1   
     2     1     3 1   
     3     1    32 1   
     4     1    33 1   
     5     2    34 1   
     6     2    35 1   
     7     3     4 1   
     8     3    36 1   
     9     3    37 1   
    10     4     5 1   
    11     4    38 1   
    12     5     6 2   
    13     5     7 2   
    14     5     8 1   
    15     8     9 ar  
    16     8    13 ar  
    17     9    10 ar  
    18     9    39 1   
    19    10    11 ar  
    20    10    40 1   
    21    11    12 ar  
    22    11    14 1   
    23    12    13 ar  
    24    12    41 1   
    25    13    42 1   
    26    14    15 ar  
    27    14    19 ar  
    28    15    16 ar  
    29    15    43 1   
    30    16    17 ar  
    31    16    44 1   
    32    17    18 ar  
    33    17    20 1   
    34    18    19 ar  
    35    18    45 1   
    36    19    46 1   
    37    20    21 1   
    38    20    47 1   
    39    20    48 1   
    40    21    22 1   
    41    22    23 2   
    42    22    27 1   
    43    23    24 1   
    44    24    25 2   
    45    24    31 1   
    46    25    26 1   
    47    25    29 1   
    48    26    27 1   
    49    26    28 2   
    50    27    52 1   
    51    29    30 1   
    52    29    49 1   
    53    29    53 1   
    54    30    31 1   
    55    30    50 1   
    56    30    54 1   
    57    31    51 1   
    58    31    55 1   
@<TRIPOS>SUBSTRUCTURE
     1 8O7         1 TEMP              0 ****  ****    0 ROOT
