@<TRIPOS>MOLECULE
8O8
   49    52     1     0     0
SMALL
No Charge or Current Charge


@<TRIPOS>ATOM
      1 C1           1.1480     2.3870    -0.7260 c3         1 8O8       0.139300
      2 C2           2.1450     1.4300    -0.0730 ca         1 8O8      -0.101300
      3 C4           3.7130     1.0020     1.7570 ca         1 8O8      -0.115000
      4 C5           3.9000    -0.3120     1.3050 ca         1 8O8      -0.075000
      5 C6           3.2170    -0.7620     0.1600 ca         1 8O8      -0.104000
      6 C7           3.3830    -2.0850    -0.2950 ca         1 8O8       0.356900
      7 C8           1.9350    -1.7450    -2.0660 ca         1 8O8       0.314900
      8 C9           1.7100    -0.4130    -1.6870 ca         1 8O8      -0.149000
      9 C11         -1.2430     1.7230    -1.2040 c          1 8O8       0.617700
     10 C12         -2.5320     1.1640    -0.6500 ca         1 8O8      -0.137600
     11 C13         -3.7210     1.8580    -0.9570 ca         1 8O8      -0.078000
     12 C14         -4.9590     1.4030    -0.4860 ca         1 8O8      -0.115000
     13 C15         -5.0230     0.2340     0.2810 ca         1 8O8      -0.096000
     14 C17         -2.5830    -0.0390     0.1160 ca         1 8O8      -0.032300
     15 C18         -1.3110    -0.8830     0.3740 c5         1 8O8      -0.064400
     16 C19         -1.1830    -1.2950     1.8630 c5         1 8O8      -0.088400
     17 C21         -1.4770    -2.2870    -0.2550 c5         1 8O8       0.157800
     18 O           -1.0670     1.7870    -2.4150 o          1 8O8      -0.601100
     19 N2          -0.4240    -3.1000     0.4160 n7         1 8O8      -0.857400
     20 C20         -0.1400    -2.4350     1.7220 c5         1 8O8       0.150800
     21 C16         -3.8500    -0.4830     0.5690 ca         1 8O8      -0.112000
     22 N           -0.2400     2.1120    -0.2880 n          1 8O8      -0.405800
     23 C           -0.5720     2.4330     1.1190 c3         1 8O8       0.089300
     24 C10          2.3500     0.1050    -0.5410 ca         1 8O8       0.003000
     25 N1           2.7490    -2.5800    -1.3840 nb         1 8O8      -0.664000
     26 C3           2.8380     1.8640     1.0760 ca         1 8O8      -0.085000
     27 H1           1.4010     3.4200    -0.4540 h1         1 8O8       0.069200
     28 H2           1.2390     2.3300    -1.8180 h1         1 8O8       0.069200
     29 H3           4.2370     1.3510     2.6440 ha         1 8O8       0.119000
     30 H4           4.5700    -0.9780     1.8440 ha         1 8O8       0.120000
     31 H5           4.0390    -2.7770     0.2320 h4         1 8O8       0.019100
     32 H6           1.4400    -2.1610    -2.9430 h4         1 8O8       0.024100
     33 H7           1.0360     0.1850    -2.2890 ha         1 8O8       0.147000
     34 H8          -3.6790     2.7650    -1.5570 ha         1 8O8       0.122000
     35 H9          -5.8690     1.9520    -0.7200 ha         1 8O8       0.118000
     36 H10         -5.9830    -0.1290     0.6410 ha         1 8O8       0.116000
     37 H11         -0.3890    -0.4180     0.0220 hc         1 8O8       0.061700
     38 H12         -0.8290    -0.4850     2.5090 hc         1 8O8       0.049700
     39 H13         -2.1100    -1.6800     2.2990 hc         1 8O8       0.049700
     40 H14         -2.4670    -2.7110    -0.0380 h1         1 8O8       0.053200
     41 H15         -1.3530    -2.2750    -1.3480 h1         1 8O8       0.053200
     42 H16          0.4370    -3.0570    -0.1470 hn         1 8O8       0.414000
     43 H18          0.8780    -2.0180     1.7110 h1         1 8O8       0.041700
     44 H19         -0.1960    -3.1450     2.5600 h1         1 8O8       0.041700
     45 H20         -3.9460    -1.4040     1.1370 ha         1 8O8       0.119000
     46 H21          0.0080     3.3030     1.4500 h1         1 8O8       0.043033
     47 H22         -1.6380     2.6700     1.2280 h1         1 8O8       0.043033
     48 H23         -0.3210     1.5810     1.7600 h1         1 8O8       0.043033
     49 H24          2.6880     2.8730     1.4540 ha         1 8O8       0.113000
@<TRIPOS>BOND
     1     1     2 1   
     2     1    22 1   
     3     1    27 1   
     4     1    28 1   
     5     2    24 ar  
     6     2    26 ar  
     7     3     4 ar  
     8     3    26 ar  
     9     3    29 1   
    10     4     5 ar  
    11     4    30 1   
    12     5     6 ar  
    13     5    24 ar  
    14     6    25 ar  
    15     6    31 1   
    16     7     8 ar  
    17     7    25 ar  
    18     7    32 1   
    19     8    24 ar  
    20     8    33 1   
    21     9    10 1   
    22     9    18 2   
    23     9    22 1   
    24    10    11 ar  
    25    10    14 ar  
    26    11    12 ar  
    27    11    34 1   
    28    12    13 ar  
    29    12    35 1   
    30    13    21 ar  
    31    13    36 1   
    32    14    15 1   
    33    14    21 ar  
    34    15    16 1   
    35    15    17 1   
    36    15    37 1   
    37    16    20 1   
    38    16    38 1   
    39    16    39 1   
    40    17    19 1   
    41    17    40 1   
    42    17    41 1   
    43    19    20 1   
    44    19    42 1   
    45    20    43 1   
    46    20    44 1   
    47    21    45 1   
    48    22    23 1   
    49    23    46 1   
    50    23    47 1   
    51    23    48 1   
    52    26    49 1   
@<TRIPOS>SUBSTRUCTURE
     1 8O8         1 TEMP              0 ****  ****    0 ROOT
