@<TRIPOS>MOLECULE
8O8
   49    52     1     0     0
SMALL
bcc


@<TRIPOS>ATOM
      1 C1           1.0940     2.3890    -0.7760 c3         1 8O8       0.139300
      2 C2           2.1360     1.5360    -0.0980 ca         1 8O8      -0.101300
      3 C4           3.8040     1.2700     1.6550 ca         1 8O8      -0.133000
      4 C5           3.9910    -0.0430     1.3290 ca         1 8O8      -0.093000
      5 C6           3.2630    -0.6070     0.2580 ca         1 8O8      -0.169300
      6 C7           3.4300    -1.9610    -0.1160 ca         1 8O8       0.422200
      7 C8           1.9430    -1.7700    -1.8230 ca         1 8O8       0.380200
      8 C9           1.6850    -0.4550    -1.5540 ca         1 8O8      -0.232300
      9 C11         -1.1780     1.5790    -1.1610 c          1 8O8       0.684700
     10 C12         -2.4890     1.1450    -0.5730 ca         1 8O8      -0.137600
     11 C13         -3.5980     1.9530    -0.8090 ca         1 8O8      -0.096000
     12 C14         -4.8500     1.5820    -0.3490 ca         1 8O8      -0.133000
     13 C15         -4.9970     0.3800     0.3310 ca         1 8O8      -0.114000
     14 C17         -2.6220    -0.0700     0.1080 ca         1 8O8      -0.032300
     15 C18         -1.4570    -0.9940     0.3300 c5         1 8O8      -0.064400
     16 C19         -1.2280    -1.4660     1.7660 c5         1 8O8      -0.088400
     17 C21         -1.5620    -2.3410    -0.4010 c5         1 8O8       0.157800
     18 O           -1.0070     1.4940    -2.3720 o          1 8O8      -0.601100
     19 N2          -0.6200    -3.2350     0.2720 n7         1 8O8      -0.802200
     20 C20         -0.2760    -2.6470     1.5760 c5         1 8O8       0.150800
     21 C16         -3.8960    -0.4330     0.5470 ca         1 8O8      -0.130000
     22 N           -0.2460     2.0550    -0.3120 n          1 8O8      -0.472800
     23 C           -0.4860     2.2680     1.1030 c3         1 8O8       0.089300
     24 C10          2.3400     0.1790    -0.4740 ca         1 8O8       0.003000
     25 N1           2.8000    -2.5310    -1.1070 nb         1 8O8      -0.664000
     26 C3           2.8720     2.0490     0.9400 ca         1 8O8      -0.103000
     27 H1           1.2890     3.4400    -0.5490 h1         1 8O8       0.069200
     28 H2           1.1310     2.2840    -1.8590 h1         1 8O8       0.069200
     29 H3           4.3600     1.7190     2.4670 ha         1 8O8       0.137000
     30 H4           4.6930    -0.6610     1.8750 ha         1 8O8       0.138000
     31 H5           4.1260    -2.5750     0.4490 h4         1 8O8       0.019100
     32 H6           1.4440    -2.2630    -2.6500 h4         1 8O8       0.024100
     33 H7           0.9860     0.0840    -2.1800 ha         1 8O8       0.165000
     34 H8          -3.4780     2.8860    -1.3460 ha         1 8O8       0.140000
     35 H9          -5.7050     2.2210    -0.5250 ha         1 8O8       0.136000
     36 H10         -5.9710     0.0720     0.6890 ha         1 8O8       0.134000
     37 H11         -0.5340    -0.5180    -0.0070 hc         1 8O8       0.061700
     38 H12         -0.8100    -0.6930     2.4110 hc         1 8O8       0.049700
     39 H13         -2.1680    -1.7970     2.2150 hc         1 8O8       0.049700
     40 H14         -2.5860    -2.7230    -0.3210 h1         1 8O8       0.053200
     41 H15         -1.3300    -2.2560    -1.4640 h1         1 8O8       0.053200
     42 H16          0.2150    -3.3280    -0.2860 hn         1 8O8       0.358800
     43 H18          0.7600    -2.2950     1.5860 h1         1 8O8       0.041700
     44 H19         -0.3750    -3.3740     2.3860 h1         1 8O8       0.041700
     45 H20         -4.0320    -1.3730     1.0690 ha         1 8O8       0.137000
     46 H21         -0.0070     3.1980     1.4080 h1         1 8O8       0.043033
     47 H22         -1.5480     2.3580     1.3100 h1         1 8O8       0.043033
     48 H23         -0.0790     1.4610     1.7140 h1         1 8O8       0.043033
     49 H24          2.7270     3.0830     1.2280 ha         1 8O8       0.131000
@<TRIPOS>BOND
     1     1     2 1   
     2     1    22 1   
     3     1    27 1   
     4     1    28 1   
     5     2    24 ar  
     6     2    26 ar  
     7     3     4 ar  
     8     3    26 ar  
     9     3    29 1   
    10     4     5 ar  
    11     4    30 1   
    12     5     6 ar  
    13     5    24 ar  
    14     6    25 ar  
    15     6    31 1   
    16     7     8 ar  
    17     7    25 ar  
    18     7    32 1   
    19     8    24 ar  
    20     8    33 1   
    21     9    10 1   
    22     9    18 2   
    23     9    22 1   
    24    10    11 ar  
    25    10    14 ar  
    26    11    12 ar  
    27    11    34 1   
    28    12    13 ar  
    29    12    35 1   
    30    13    21 ar  
    31    13    36 1   
    32    14    15 1   
    33    14    21 ar  
    34    15    16 1   
    35    15    17 1   
    36    15    37 1   
    37    16    20 1   
    38    16    38 1   
    39    16    39 1   
    40    17    19 1   
    41    17    40 1   
    42    17    41 1   
    43    19    20 1   
    44    19    42 1   
    45    20    43 1   
    46    20    44 1   
    47    21    45 1   
    48    22    23 1   
    49    23    46 1   
    50    23    47 1   
    51    23    48 1   
    52    26    49 1   
@<TRIPOS>SUBSTRUCTURE
     1 8O8         1 TEMP              0 ****  ****    0 ROOT
