@<TRIPOS>MOLECULE
8O9
   18    18     1     0     0
SMALL
No Charge or Current Charge


@<TRIPOS>ATOM
      1 C02         -6.2770   -14.6030   -18.0400 c6         1 8O9       0.167300
      2 C03         -6.0290   -15.9940   -17.4010 c6         1 8O9      -0.073400
      3 C04         -7.2040   -16.3850   -16.4680 c6         1 8O9      -0.076400
      4 C05         -7.4660   -15.2880   -15.4060 c6         1 8O9       0.157800
      5 C07         -6.5830   -13.5480   -16.9280 c6         1 8O9       0.122800
      6 N06         -7.7040   -13.9690   -16.0410 n7         1 8O9      -0.863400
      7 O01         -5.1350   -14.2150   -18.8190 oh         1 8O9      -0.660000
      8 H1          -7.1610   -14.6790   -18.6910 h1         1 8O9       0.043700
      9 H2          -5.9050   -16.7520   -18.1850 hc         1 8O9       0.051700
     10 H3          -5.0930   -15.9780   -16.8260 hc         1 8O9       0.051700
     11 H4          -8.1130   -16.5460   -17.0630 hc         1 8O9       0.048200
     12 H5          -6.9840   -17.3390   -15.9690 hc         1 8O9       0.048200
     13 H6          -8.3390   -15.5640   -14.7970 h1         1 8O9       0.030200
     14 H7          -6.5990   -15.2170   -14.7320 h1         1 8O9       0.030200
     15 H8          -5.6810   -13.3920   -16.3160 h1         1 8O9       0.033700
     16 H9          -6.8370   -12.5850   -17.3950 h1         1 8O9       0.033700
     17 H10         -7.8310   -13.2620   -15.3040 hn         1 8O9       0.413000
     18 H12         -5.3810   -13.3870   -19.2870 ho         1 8O9       0.441000
@<TRIPOS>BOND
     1     1     2 1   
     2     1     5 1   
     3     1     7 1   
     4     1     8 1   
     5     2     3 1   
     6     2     9 1   
     7     2    10 1   
     8     3     4 1   
     9     3    11 1   
    10     3    12 1   
    11     4     6 1   
    12     4    13 1   
    13     4    14 1   
    14     5     6 1   
    15     5    15 1   
    16     5    16 1   
    17     6    17 1   
    18     7    18 1   
@<TRIPOS>SUBSTRUCTURE
     1 8O9         1 TEMP              0 ****  ****    0 ROOT
