@<TRIPOS>MOLECULE
8O9
   18    18     1     0     0
SMALL
abcg2


@<TRIPOS>ATOM
      1 C02         -6.3050   -14.6010   -18.0130 c6         1 8O9       0.167300
      2 C03         -6.0480   -15.9690   -17.4020 c6         1 8O9      -0.073400
      3 C04         -7.1880   -16.3610   -16.4660 c6         1 8O9      -0.076400
      4 C05         -7.4370   -15.2710   -15.4330 c6         1 8O9       0.157800
      5 C07         -6.5660   -13.5840   -16.9040 c6         1 8O9       0.122800
      6 N06         -7.7010   -14.0120   -16.1090 n7         1 8O9      -0.863400
      7 O01         -5.1850   -14.2470   -18.7970 oh         1 8O9      -0.660000
      8 H1          -7.2130   -14.6610   -18.6310 h1         1 8O9       0.043700
      9 H2          -5.9200   -16.7180   -18.1870 hc         1 8O9       0.051700
     10 H3          -5.1110   -15.9320   -16.8350 hc         1 8O9       0.051700
     11 H4          -8.1030   -16.5240   -17.0430 hc         1 8O9       0.048200
     12 H5          -6.9560   -17.3020   -15.9650 hc         1 8O9       0.048200
     13 H6          -8.2990   -15.5270   -14.8140 h1         1 8O9       0.030200
     14 H7          -6.5640   -15.2110   -14.7630 h1         1 8O9       0.030200
     15 H8          -5.6410   -13.4760   -16.3110 h1         1 8O9       0.033700
     16 H9          -6.7890   -12.6060   -17.3400 h1         1 8O9       0.033700
     17 H10         -7.9270   -13.2980   -15.4300 hn         1 8O9       0.413000
     18 H12         -5.3700   -13.4040   -19.2220 ho         1 8O9       0.441000
@<TRIPOS>BOND
     1     1     2 1   
     2     1     5 1   
     3     1     7 1   
     4     1     8 1   
     5     2     3 1   
     6     2     9 1   
     7     2    10 1   
     8     3     4 1   
     9     3    11 1   
    10     3    12 1   
    11     4     6 1   
    12     4    13 1   
    13     4    14 1   
    14     5     6 1   
    15     5    15 1   
    16     5    16 1   
    17     6    17 1   
    18     7    18 1   
@<TRIPOS>SUBSTRUCTURE
     1 8O9         1 TEMP              0 ****  ****    0 ROOT
