@<TRIPOS>MOLECULE
8OA
   62    65     1     0     0
SMALL
bcc


@<TRIPOS>ATOM
      1 O4           5.3880     2.5730    -0.1430 o          1 8OA      -0.609100
      2 C3           6.4270     1.9410    -0.2820 c          1 8OA       0.651100
      3 N5           7.4380     2.3490    -1.0520 ns         1 8OA      -0.564900
      4 C6           7.4090     3.5970    -1.7780 c3         1 8OA       0.093300
      5 C4           6.6370     0.6160     0.4460 c3         1 8OA       0.035700
      6 C7           6.7810     0.8450     1.9600 c3         1 8OA      -0.069700
      7 C10          6.9940    -0.4770     2.6870 c3         1 8OA      -0.090100
      8 C8           7.9250     1.8100     2.2550 c3         1 8OA      -0.090100
      9 N8           5.5120    -0.2330     0.1260 ns         1 8OA      -0.555900
     10 C9           5.6280    -1.4760    -0.3730 c          1 8OA       0.611600
     11 O10          6.6920    -2.0470    -0.5710 o          1 8OA      -0.598100
     12 C11          4.3680    -2.1610    -0.6900 cc         1 8OA       0.169200
     13 O15          3.1930    -1.5040    -0.5780 os         1 8OA      -0.323800
     14 C14          2.2070    -2.3440    -0.9410 cc         1 8OA       0.322200
     15 C13          2.7430    -3.5540    -1.2820 cd         1 8OA      -0.267300
     16 C12          4.1450    -3.4310    -1.1210 cd         1 8OA      -0.185300
     17 C16          0.8460    -1.8380    -0.9300 ca         1 8OA      -0.118500
     18 C21         -0.2200    -2.7100    -1.1650 ca         1 8OA      -0.105000
     19 C20         -1.5210    -2.2420    -1.1850 ca         1 8OA      -0.109500
     20 C19         -1.7960    -0.8930    -0.9770 ca         1 8OA      -0.085300
     21 C18         -0.7360    -0.0260    -0.7290 ca         1 8OA      -0.109500
     22 C17          0.5700    -0.4860    -0.7080 ca         1 8OA      -0.105000
     23 C22         -3.2060    -0.3890    -0.9930 c3         1 8OA       0.075000
     24 S23         -3.8240    -0.4910     0.7200 ss         1 8OA      -0.211300
     25 C24         -5.4420     0.1470     0.5380 cc         1 8OA       0.518800
     26 N29         -6.1580     0.2380     1.6830 ns         1 8OA      -0.467400
     27 C28         -7.4660     0.7280     1.7560 c          1 8OA       0.721700
     28 O39         -8.0410     0.7990     2.8310 o          1 8OA      -0.614500
     29 C27         -7.9660     1.0960     0.4700 cc         1 8OA      -0.271400
     30 C36         -9.3010     1.6780     0.1330 c5         1 8OA      -0.009200
     31 C37         -9.3320     1.5690    -1.4070 c5         1 8OA      -0.082400
     32 C38         -7.8650     1.4580    -1.8580 c5         1 8OA      -0.037200
     33 C26         -7.1710     0.9700    -0.6250 cd         1 8OA       0.180400
     34 N25         -5.8990     0.4990    -0.6210 nd         1 8OA      -0.654300
     35 H1           8.2570     1.7700    -1.1300 hn         1 8OA       0.320500
     36 H2           7.3130     4.4500    -1.1060 h1         1 8OA       0.042033
     37 H3           8.3410     3.6950    -2.3270 h1         1 8OA       0.042033
     38 H4           6.5840     3.6270    -2.4900 h1         1 8OA       0.042033
     39 H5           7.5380     0.1190     0.0820 h1         1 8OA       0.084700
     40 H6           5.8490     1.2940     2.3180 hc         1 8OA       0.065700
     41 H7           7.9110    -0.9680     2.3520 hc         1 8OA       0.038867
     42 H8           7.0840    -0.3050     3.7600 hc         1 8OA       0.038867
     43 H9           6.1650    -1.1680     2.5370 hc         1 8OA       0.038867
     44 H10          7.7430     2.8110     1.8610 hc         1 8OA       0.038867
     45 H11          8.0650     1.9110     3.3320 hc         1 8OA       0.038867
     46 H12          8.8670     1.4500     1.8340 hc         1 8OA       0.038867
     47 H13          4.5940     0.1570     0.2820 hn         1 8OA       0.342500
     48 H14          2.2080    -4.4250    -1.6220 ha         1 8OA       0.165000
     49 H15          4.8910    -4.1860    -1.3040 ha         1 8OA       0.177000
     50 H16         -0.0380    -3.7630    -1.3310 ha         1 8OA       0.144500
     51 H17         -2.3330    -2.9350    -1.3690 ha         1 8OA       0.141000
     52 H18         -0.9280     1.0270    -0.5610 ha         1 8OA       0.141000
     53 H19          1.3700     0.2190    -0.5280 ha         1 8OA       0.144500
     54 H20         -3.2620     0.6490    -1.3180 h1         1 8OA       0.090700
     55 H21         -3.8460    -0.9930    -1.6330 h1         1 8OA       0.090700
     56 H22        -10.1300     1.1450     0.6010 hc         1 8OA       0.060200
     57 H23         -9.8670     0.6620    -1.6950 hc         1 8OA       0.049200
     58 H24         -7.7240     0.7880    -2.7070 hc         1 8OA       0.066200
     59 H25         -5.7350    -0.0430     2.5600 hn         1 8OA       0.338500
     60 H26         -9.3690     2.7180     0.4660 hc         1 8OA       0.060200
     61 H27         -9.8460     2.4090    -1.8720 hc         1 8OA       0.049200
     62 H28         -7.4480     2.4290    -2.1450 hc         1 8OA       0.066200
@<TRIPOS>BOND
     1     1     2 2   
     2     2     3 1   
     3     2     5 1   
     4     3     4 1   
     5     3    35 1   
     6     4    36 1   
     7     4    37 1   
     8     4    38 1   
     9     5     6 1   
    10     5     9 1   
    11     5    39 1   
    12     6     7 1   
    13     6     8 1   
    14     6    40 1   
    15     7    41 1   
    16     7    42 1   
    17     7    43 1   
    18     8    44 1   
    19     8    45 1   
    20     8    46 1   
    21     9    10 1   
    22     9    47 1   
    23    10    11 2   
    24    10    12 1   
    25    12    13 1   
    26    12    16 2   
    27    13    14 1   
    28    14    15 2   
    29    14    17 1   
    30    15    16 1   
    31    15    48 1   
    32    16    49 1   
    33    17    18 ar  
    34    17    22 ar  
    35    18    19 ar  
    36    18    50 1   
    37    19    20 ar  
    38    19    51 1   
    39    20    21 ar  
    40    20    23 1   
    41    21    22 ar  
    42    21    52 1   
    43    22    53 1   
    44    23    24 1   
    45    23    54 1   
    46    23    55 1   
    47    24    25 1   
    48    25    26 1   
    49    25    34 2   
    50    26    27 1   
    51    26    59 1   
    52    27    28 2   
    53    27    29 1   
    54    29    30 1   
    55    29    33 2   
    56    30    31 1   
    57    30    56 1   
    58    30    60 1   
    59    31    32 1   
    60    31    57 1   
    61    31    61 1   
    62    32    33 1   
    63    32    58 1   
    64    32    62 1   
    65    33    34 1   
@<TRIPOS>SUBSTRUCTURE
     1 8OA         1 TEMP              0 ****  ****    0 ROOT
