@<TRIPOS>MOLECULE
8OA
   62    65     1     0     0
SMALL
No Charge or Current Charge


@<TRIPOS>ATOM
      1 O4           5.7100     2.5480    -0.6800 o          1 8OA      -0.609100
      2 C3           6.7860     1.9940    -0.4850 c          1 8OA       0.584100
      3 N5           7.9720     2.5510    -0.9180 ns         1 8OA      -0.497900
      4 C6           8.0740     3.8350    -1.6150 c3         1 8OA       0.093300
      5 C4           6.9120     0.6160     0.2340 c3         1 8OA       0.035700
      6 C7           7.1100     0.7600     1.7800 c3         1 8OA      -0.069700
      7 C10          7.1750    -0.6080     2.5070 c3         1 8OA      -0.090100
      8 C8           8.3470     1.6150     2.1530 c3         1 8OA      -0.090100
      9 N8           5.7050    -0.1880    -0.0710 ns         1 8OA      -0.488900
     10 C9           5.6950    -1.5280    -0.4020 c          1 8OA       0.544600
     11 O10          6.7220    -2.1890    -0.4890 o          1 8OA      -0.598100
     12 C11          4.3280    -2.0610    -0.6390 cc         1 8OA       0.059500
     13 O15          3.1780    -1.3000    -0.5390 os         1 8OA      -0.235000
     14 C14          2.1410    -2.1550    -0.8270 cc         1 8OA       0.212500
     15 C13          2.6030    -3.4140    -1.1050 cd         1 8OA      -0.184000
     16 C12          4.0090    -3.3520    -0.9840 cd         1 8OA      -0.102000
     17 C16          0.7370    -1.7200    -0.8290 ca         1 8OA      -0.118500
     18 C21         -0.3220    -2.6310    -1.0420 ca         1 8OA      -0.087000
     19 C20         -1.6570    -2.1900    -1.0380 ca         1 8OA      -0.091500
     20 C19         -1.9590    -0.8340    -0.8230 ca         1 8OA      -0.085300
     21 C18         -0.9100     0.0780    -0.6070 ca         1 8OA      -0.091500
     22 C17          0.4250    -0.3610    -0.6100 ca         1 8OA      -0.087000
     23 C22         -3.4050    -0.3590    -0.8170 c3         1 8OA       0.122900
     24 S23         -4.1110    -0.4550     0.8920 ss         1 8OA      -0.259200
     25 C24         -5.7620     0.1250     0.6990 cc         1 8OA       0.518800
     26 N29         -6.5910     0.1890     1.7810 ns         1 8OA      -0.400400
     27 C28         -7.8700     0.6180     1.7390 c          1 8OA       0.579200
     28 O39         -8.5810     0.6620     2.7300 o          1 8OA      -0.539000
     29 C27         -8.2770     1.0100     0.3940 cc         1 8OA      -0.271400
     30 C36         -9.6240     1.5280    -0.0150 c5         1 8OA      -0.009200
     31 C37         -9.6310     1.3720    -1.5660 c5         1 8OA      -0.082400
     32 C38         -8.1050     1.4090    -1.9180 c5         1 8OA      -0.037200
     33 C26         -7.4170     0.9310    -0.6650 cd         1 8OA       0.180400
     34 N25         -6.1080     0.4780    -0.5370 nd         1 8OA      -0.654300
     35 H1           8.8230     2.0320    -0.7300 hn         1 8OA       0.320500
     36 H2           7.6740     4.6340    -0.9780 h1         1 8OA       0.042033
     37 H3           9.1270     4.0460    -1.8420 h1         1 8OA       0.042033
     38 H4           7.5030     3.7940    -2.5510 h1         1 8OA       0.042033
     39 H5           7.7890     0.1110    -0.1910 h1         1 8OA       0.084700
     40 H6           6.2310     1.2860     2.1740 hc         1 8OA       0.065700
     41 H7           7.9960    -1.2200     2.1130 hc         1 8OA       0.038867
     42 H8           7.3390    -0.4690     3.5830 hc         1 8OA       0.038867
     43 H9           6.2390    -1.1670     2.3910 hc         1 8OA       0.038867
     44 H10          8.2380     2.6480     1.8030 hc         1 8OA       0.038867
     45 H11          8.4770     1.6550     3.2410 hc         1 8OA       0.038867
     46 H12          9.2610     1.1920     1.7180 hc         1 8OA       0.038867
     47 H13          4.8020     0.2770    -0.0590 hn         1 8OA       0.342500
     48 H14          2.0180    -4.2870    -1.3700 ha         1 8OA       0.147000
     49 H15          4.7120    -4.1660    -1.1330 ha         1 8OA       0.159000
     50 H16         -0.1250    -3.6870    -1.2080 ha         1 8OA       0.126500
     51 H17         -2.4580    -2.9080    -1.2010 ha         1 8OA       0.123000
     52 H18         -1.1280     1.1300    -0.4330 ha         1 8OA       0.123000
     53 H19          1.2180     0.3640    -0.4400 ha         1 8OA       0.126500
     54 H20         -3.4580     0.6780    -1.1730 h1         1 8OA       0.090700
     55 H21         -4.0050    -0.9820    -1.4930 h1         1 8OA       0.090700
     56 H22        -10.4450     0.9720     0.4540 hc         1 8OA       0.060200
     57 H23        -10.0660     0.4070    -1.8510 hc         1 8OA       0.049200
     58 H24         -7.8760     0.7810    -2.7870 hc         1 8OA       0.066200
     59 H25         -6.2430    -0.0990     2.6820 hn         1 8OA       0.338500
     60 H26         -9.7370     2.5790     0.2790 hc         1 8OA       0.060200
     61 H27        -10.2070     2.1550    -2.0730 hc         1 8OA       0.049200
     62 H28         -7.7850     2.4260    -2.1710 hc         1 8OA       0.066200
@<TRIPOS>BOND
     1     1     2 2   
     2     2     3 1   
     3     2     5 1   
     4     3     4 1   
     5     3    35 1   
     6     4    36 1   
     7     4    37 1   
     8     4    38 1   
     9     5     6 1   
    10     5     9 1   
    11     5    39 1   
    12     6     7 1   
    13     6     8 1   
    14     6    40 1   
    15     7    41 1   
    16     7    42 1   
    17     7    43 1   
    18     8    44 1   
    19     8    45 1   
    20     8    46 1   
    21     9    10 1   
    22     9    47 1   
    23    10    11 2   
    24    10    12 1   
    25    12    13 1   
    26    12    16 2   
    27    13    14 1   
    28    14    15 2   
    29    14    17 1   
    30    15    16 1   
    31    15    48 1   
    32    16    49 1   
    33    17    18 ar  
    34    17    22 ar  
    35    18    19 ar  
    36    18    50 1   
    37    19    20 ar  
    38    19    51 1   
    39    20    21 ar  
    40    20    23 1   
    41    21    22 ar  
    42    21    52 1   
    43    22    53 1   
    44    23    24 1   
    45    23    54 1   
    46    23    55 1   
    47    24    25 1   
    48    25    26 1   
    49    25    34 2   
    50    26    27 1   
    51    26    59 1   
    52    27    28 2   
    53    27    29 1   
    54    29    30 1   
    55    29    33 2   
    56    30    31 1   
    57    30    56 1   
    58    30    60 1   
    59    31    32 1   
    60    31    57 1   
    61    31    61 1   
    62    32    33 1   
    63    32    58 1   
    64    32    62 1   
    65    33    34 1   
@<TRIPOS>SUBSTRUCTURE
     1 8OA         1 TEMP              0 ****  ****    0 ROOT
