@<TRIPOS>MOLECULE
8OB
   23    24     1     0     0
SMALL
No Charge or Current Charge


@<TRIPOS>ATOM
      1 N            0.5810    -1.1340     0.0640 nb         1 8OB      -0.728000
      2 C            1.7140     1.0190     0.1490 ca         1 8OB       0.040000
      3 O           -0.5410     0.7460     0.9370 os         1 8OB      -0.346400
      4 C1           0.5840     0.1900     0.3630 ca         1 8OB       0.596300
      5 C10          2.8750     0.4610    -0.4130 ca         1 8OB      -0.036000
      6 C2          -1.8240     0.3370     0.6460 ca         1 8OB       0.064100
      7 C3          -2.7620     0.2530     1.6900 ca         1 8OB      -0.061500
      8 C4          -4.0860    -0.1380     1.4180 ca         1 8OB      -0.169000
      9 C5          -4.4760    -0.4340     0.1030 ca         1 8OB       0.145100
     10 C6          -3.5470    -0.3360    -0.9460 ca         1 8OB      -0.169000
     11 C7          -2.2210     0.0530    -0.6770 ca         1 8OB      -0.061500
     12 C8           1.7070    -1.6610    -0.4780 ca         1 8OB       0.394900
     13 C9           2.8690    -0.9050    -0.7330 ca         1 8OB       0.024000
     14 O1          -5.7610    -0.8100    -0.1480 oh         1 8OB      -0.530100
     15 Cl           1.6920     2.7360     0.5660 cl         1 8OB      -0.153000
     16 Cl1          4.2990    -1.6560    -1.4400 cl         1 8OB      -0.175000
     17 H6           3.7550     1.0720    -0.5930 ha         1 8OB       0.149000
     18 H           -2.4610     0.4870     2.7090 ha         1 8OB       0.128500
     19 H1          -4.8080    -0.2080     2.2280 ha         1 8OB       0.125000
     20 H3          -3.8430    -0.5570    -1.9690 ha         1 8OB       0.125000
     21 H4          -1.5090     0.1370    -1.4950 ha         1 8OB       0.128500
     22 H5           1.6780    -2.7240    -0.7130 h4         1 8OB       0.040100
     23 H2          -5.8550    -0.9750    -1.1110 ho         1 8OB       0.467000
@<TRIPOS>BOND
     1     1     4 ar  
     2     1    12 ar  
     3     2     4 ar  
     4     2     5 ar  
     5     2    15 1   
     6     3     4 1   
     7     3     6 1   
     8     5    13 ar  
     9     5    17 1   
    10     6     7 ar  
    11     6    11 ar  
    12     7     8 ar  
    13     7    18 1   
    14     8     9 ar  
    15     8    19 1   
    16     9    10 ar  
    17     9    14 1   
    18    10    11 ar  
    19    10    20 1   
    20    11    21 1   
    21    12    13 ar  
    22    12    22 1   
    23    13    16 1   
    24    14    23 1   
@<TRIPOS>SUBSTRUCTURE
     1 8OB         1 TEMP              0 ****  ****    0 ROOT
