@<TRIPOS>MOLECULE
8OB
   23    24     1     0     0
SMALL
bcc


@<TRIPOS>ATOM
      1 N            0.4180    -0.8740    -0.1670 nb         1 8OB      -0.728000
      2 C            1.7430     1.0730     0.1210 ca         1 8OB      -0.116900
      3 O           -0.5860     1.1390     0.3120 os         1 8OB      -0.346400
      4 C1           0.5110     0.4080     0.0820 ca         1 8OB       0.661600
      5 C10          2.8930     0.3520    -0.1090 ca         1 8OB      -0.054000
      6 C2          -1.8240     0.5250     0.2530 ca         1 8OB       0.064100
      7 C3          -2.4360     0.1200     1.4270 ca         1 8OB      -0.079500
      8 C4          -3.7070    -0.4300     1.3870 ca         1 8OB      -0.187000
      9 C5          -4.3660    -0.5820     0.1690 ca         1 8OB       0.145100
     10 C6          -3.7390    -0.1730    -1.0060 ca         1 8OB      -0.187000
     11 C7          -2.4680     0.3800    -0.9630 ca         1 8OB      -0.079500
     12 C8           1.5190    -1.5820    -0.3930 ca         1 8OB       0.460200
     13 C9           2.7730    -1.0070    -0.3730 ca         1 8OB      -0.132900
     14 O1          -5.6010    -1.1210     0.1850 oh         1 8OB      -0.491100
     15 CL           1.8060     2.7580     0.4520 cl         1 8OB      -0.061400
     16 CL1          4.1770    -1.9630    -0.6710 cl         1 8OB      -0.083400
     17 H6           3.8600     0.8350    -0.0830 ha         1 8OB       0.167000
     18 H           -1.9300     0.2400     2.3760 ha         1 8OB       0.146500
     19 H1          -4.1910    -0.7410     2.3040 ha         1 8OB       0.143000
     20 H3          -4.2390    -0.2840    -1.9620 ha         1 8OB       0.143000
     21 H4          -1.9900     0.7000    -1.8800 ha         1 8OB       0.146500
     22 H5           1.3920    -2.6390    -0.5940 h4         1 8OB       0.040100
     23 H2          -5.9550    -1.1810    -0.7090 ho         1 8OB       0.428000
@<TRIPOS>BOND
     1     1     4 ar  
     2     1    12 ar  
     3     2     4 ar  
     4     2     5 ar  
     5     2    15 1   
     6     3     4 1   
     7     3     6 1   
     8     5    13 ar  
     9     5    17 1   
    10     6     7 ar  
    11     6    11 ar  
    12     7     8 ar  
    13     7    18 1   
    14     8     9 ar  
    15     8    19 1   
    16     9    10 ar  
    17     9    14 1   
    18    10    11 ar  
    19    10    20 1   
    20    11    21 1   
    21    12    13 ar  
    22    12    22 1   
    23    13    16 1   
    24    14    23 1   
@<TRIPOS>SUBSTRUCTURE
     1 8OB         1 TEMP              0 ****  ****    0 ROOT
