@<TRIPOS>MOLECULE
8OC
   60    63     1     0     0
SMALL
bcc


@<TRIPOS>ATOM
      1 C10        -10.8840   -17.7630    14.2010 c5         1 8OC       0.139100
      2 C12         -9.4600   -17.2000    14.0070 c5         1 8OC      -0.086700
      3 C13         -8.4010   -18.2320    14.4910 c3         1 8OC      -0.007100
      4 C14         -7.0050   -17.6980    14.6790 ca         1 8OC      -0.098300
      5 C15         -6.5670   -17.3290    15.9500 ca         1 8OC      -0.086000
      6 C01         -5.2950   -16.7490    20.9590 c3         1 8OC       0.123700
      7 C03         -7.4020   -16.9730    19.8990 ca         1 8OC       0.148100
      8 C04         -8.5380   -17.7560    19.6710 ca         1 8OC      -0.197000
      9 C05         -9.5410   -17.3010    18.8370 ca         1 8OC      -0.072000
     10 C06         -9.4460   -16.0640    18.1960 ca         1 8OC      -0.163300
     11 C07        -10.4970   -15.6180    17.2150 c3         1 8OC       0.168300
     12 C09        -11.1400   -17.5530    15.6960 c5         1 8OC       0.060000
     13 C16         -5.2820   -16.8540    16.1680 ca         1 8OC      -0.169000
     14 C17         -4.4250   -16.7540    15.0900 ca         1 8OC       0.137900
     15 C19         -4.8120   -17.1170    13.8160 ca         1 8OC      -0.169000
     16 C20         -6.1030   -17.5910    13.6220 ca         1 8OC      -0.086000
     17 C21         -9.4590   -16.0660    15.0360 c          1 8OC       0.709500
     18 C23         -9.2720   -16.7480    12.5770 ca         1 8OC       0.000700
     19 C24         -8.8470   -17.6430    11.5980 ca         1 8OC      -0.133500
     20 C25         -8.7600   -17.2730    10.2660 ca         1 8OC      -0.038000
     21 C26         -9.1300   -15.9910     9.8960 ca         1 8OC      -0.265500
     22 C27         -9.5890   -15.0850    10.8420 ca         1 8OC      -0.038000
     23 C28         -9.6510   -15.4660    12.1710 ca         1 8OC      -0.133500
     24 C30         -7.5740   -14.5190     8.0930 c3         1 8OC      -0.223300
     25 C33         -8.3210   -15.2910    18.4430 ca         1 8OC      -0.072000
     26 C34         -7.3050   -15.7270    19.2870 ca         1 8OC      -0.197000
     27 F18         -3.1750   -16.2990    15.2860 f          1 8OC      -0.147900
     28 N08        -10.4010   -16.3380    15.9590 n          1 8OC      -0.481800
     29 O11        -10.9780   -19.0820    13.7620 oh         1 8OC      -0.578800
     30 O22         -8.7050   -15.1110    15.0530 o          1 8OC      -0.601500
     31 S29         -9.0490   -15.5100     8.1900 sy         1 8OC       1.089300
     32 H1         -11.5740   -17.1100    13.6500 h1         1 8OC       0.050700
     33 H3          -8.7320   -18.6470    15.4450 hc         1 8OC       0.062200
     34 H4          -8.3850   -19.0800    13.8060 hc         1 8OC       0.062200
     35 H5          -7.2390   -17.4120    16.7960 ha         1 8OC       0.135500
     36 H6          -4.6800   -17.3470    21.6280 h1         1 8OC       0.042700
     37 H7          -4.7350   -16.5610    20.0390 h1         1 8OC       0.042700
     38 H8          -5.5090   -15.7910    21.4420 h1         1 8OC       0.042700
     39 H9          -8.6270   -18.7200    20.1580 ha         1 8OC       0.143000
     40 H10        -10.4150   -17.9250    18.6870 ha         1 8OC       0.135000
     41 H11        -11.5000   -15.7880    17.6100 h1         1 8OC       0.062200
     42 H12        -10.4070   -14.5500    17.0180 h1         1 8OC       0.062200
     43 H14        -10.7730   -18.3990    16.2860 h1         1 8OC       0.053700
     44 H15        -12.1990   -17.4180    15.9230 h1         1 8OC       0.053700
     45 H16         -4.9570   -16.5730    17.1620 ha         1 8OC       0.146000
     46 H17         -4.1200   -17.0420    12.9870 ha         1 8OC       0.146000
     47 H18         -6.3980   -17.8920    12.6250 ha         1 8OC       0.135500
     48 H19         -8.5690   -18.6550    11.8570 ha         1 8OC       0.145000
     49 H20         -8.4160   -17.9880     9.5310 ha         1 8OC       0.154500
     50 H21         -9.8990   -14.0880    10.5570 ha         1 8OC       0.154500
     51 H22        -10.0160   -14.7450    12.8890 ha         1 8OC       0.145000
     52 H23         -7.4660   -14.1960     7.0580 h1         1 8OC       0.103033
     53 H24         -7.6700   -13.6540     8.7460 h1         1 8OC       0.103033
     54 H25         -6.7180   -15.1230     8.3880 h1         1 8OC       0.103033
     55 H26         -8.2200   -14.3250    17.9650 ha         1 8OC       0.135000
     56 H27         -6.4490   -15.0840    19.4430 ha         1 8OC       0.143000
     57 H28        -11.9080   -19.3220    13.6970 ho         1 8OC       0.416000
     58 O02         -6.4700   -17.4940    20.7180 os         1 8OC      -0.315900
     59 O31        -10.2010   -14.6590     7.9010 o          1 8OC      -0.596300
     60 O32         -8.8450   -16.7120     7.3860 o          1 8OC      -0.596300
@<TRIPOS>BOND
     1     1     2 1   
     2     1    12 1   
     3     1    29 1   
     4     1    32 1   
     5     2     3 1   
     6     2    17 1   
     7     2    18 1   
     8     3     4 1   
     9     3    33 1   
    10     3    34 1   
    11     4     5 ar  
    12     4    16 ar  
    13     5    13 ar  
    14     5    35 1   
    15     6    36 1   
    16     6    37 1   
    17     6    38 1   
    18     6    58 1   
    19     7     8 ar  
    20     7    26 ar  
    21     7    58 1   
    22     8     9 ar  
    23     8    39 1   
    24     9    10 ar  
    25     9    40 1   
    26    10    11 1   
    27    10    25 ar  
    28    11    28 1   
    29    11    41 1   
    30    11    42 1   
    31    12    28 1   
    32    12    43 1   
    33    12    44 1   
    34    13    14 ar  
    35    13    45 1   
    36    14    15 ar  
    37    14    27 1   
    38    15    16 ar  
    39    15    46 1   
    40    16    47 1   
    41    17    28 1   
    42    17    30 2   
    43    18    19 ar  
    44    18    23 ar  
    45    19    20 ar  
    46    19    48 1   
    47    20    21 ar  
    48    20    49 1   
    49    21    22 ar  
    50    21    31 1   
    51    22    23 ar  
    52    22    50 1   
    53    23    51 1   
    54    24    31 1   
    55    24    52 1   
    56    24    53 1   
    57    24    54 1   
    58    25    26 ar  
    59    25    55 1   
    60    26    56 1   
    61    29    57 1   
    62    31    59 2   
    63    31    60 2   
@<TRIPOS>SUBSTRUCTURE
     1 8OC         1 TEMP              0 ****  ****    0 ROOT
