@<TRIPOS>MOLECULE
8OC
   60    63     1     0     0
SMALL
No Charge or Current Charge


@<TRIPOS>ATOM
      1 C10        -10.9740   -17.7970    14.1040 c5         1 8OC       0.162300
      2 C12         -9.4910   -17.2850    14.0130 c5         1 8OC      -0.086700
      3 C13         -8.4290   -18.3480    14.4710 c3         1 8OC      -0.007100
      4 C14         -7.0220   -17.7930    14.6850 ca         1 8OC      -0.098300
      5 C15         -6.5850   -17.4800    15.9900 ca         1 8OC      -0.068000
      6 C01         -5.1230   -16.4810    21.0120 c3         1 8OC       0.146900
      7 C03         -7.3140   -16.8730    19.9450 ca         1 8OC       0.148100
      8 C04         -8.4060   -17.7360    19.7690 ca         1 8OC      -0.179000
      9 C05         -9.4670   -17.3800    18.9190 ca         1 8OC      -0.054000
     10 C06         -9.4440   -16.1480    18.2390 ca         1 8OC      -0.163300
     11 C07        -10.5710   -15.7840    17.2810 c3         1 8OC       0.168300
     12 C09        -11.3020   -17.6540    15.6260 c5         1 8OC       0.060000
     13 C16         -5.2980   -16.9580    16.2030 ca         1 8OC      -0.151000
     14 C17         -4.4410   -16.7500    15.1120 ca         1 8OC       0.173000
     15 C19         -4.8610   -17.0650    13.8110 ca         1 8OC      -0.151000
     16 C20         -6.1490   -17.5870    13.5970 ca         1 8OC      -0.068000
     17 C21         -9.4810   -16.1610    15.0750 c          1 8OC       0.567000
     18 C23         -9.3570   -16.7740    12.5540 ca         1 8OC       0.000700
     19 C24         -8.9590   -17.6420    11.5090 ca         1 8OC      -0.115500
     20 C25         -8.8510   -17.1920    10.1830 ca         1 8OC      -0.020000
     21 C26         -9.1610   -15.8590     9.8610 ca         1 8OC      -0.265500
     22 C27         -9.5900   -14.9870    10.8780 ca         1 8OC      -0.020000
     23 C28         -9.6960   -15.4450    12.2020 ca         1 8OC      -0.115500
     24 C30         -7.3200   -14.6850     8.0810 c3         1 8OC      -0.334100
     25 C33         -8.3520   -15.2780    18.4180 ca         1 8OC      -0.054000
     26 C34         -7.2900   -15.6350    19.2670 ca         1 8OC      -0.179000
     27 F18         -3.2030   -16.2480    15.3160 f          1 8OC      -0.183000
     28 N08        -10.4560   -16.5130    16.0080 n          1 8OC      -0.414800
     29 O11        -11.1330   -19.1400    13.6340 oh         1 8OC      -0.641000
     30 O22         -8.7870   -15.1540    15.1360 o          1 8OC      -0.526000
     31 S29         -9.0110   -15.2720     8.1590 sy         1 8OC       1.058500
     32 H1         -11.6340   -17.1220    13.5390 h1         1 8OC       0.050700
     33 H3          -8.7600   -18.8050    15.4110 hc         1 8OC       0.062200
     34 H4          -8.3860   -19.1930    13.7770 hc         1 8OC       0.062200
     35 H5          -7.2450   -17.6350    16.8410 ha         1 8OC       0.117500
     36 H6          -4.4430   -16.9940    21.7040 h1         1 8OC       0.042700
     37 H7          -4.5830   -16.3040    20.0730 h1         1 8OC       0.042700
     38 H8          -5.3910   -15.5130    21.4540 h1         1 8OC       0.042700
     39 H9          -8.4260   -18.6910    20.2880 ha         1 8OC       0.125000
     40 H10        -10.3020   -18.0650    18.7820 ha         1 8OC       0.117000
     41 H11        -11.5350   -16.0250    17.7470 h1         1 8OC       0.062200
     42 H12        -10.5640   -14.7040    17.0830 h1         1 8OC       0.062200
     43 H14        -11.0220   -18.5510    16.1940 h1         1 8OC       0.053700
     44 H15        -12.3670   -17.4470    15.7970 h1         1 8OC       0.053700
     45 H16         -4.9670   -16.7130    17.2090 ha         1 8OC       0.128000
     46 H17         -4.1900   -16.9050    12.9720 ha         1 8OC       0.128000
     47 H18         -6.4640   -17.8300    12.5860 ha         1 8OC       0.117500
     48 H19         -8.7390   -18.6850    11.7100 ha         1 8OC       0.127000
     49 H20         -8.5310   -17.8890     9.4100 ha         1 8OC       0.136500
     50 H21         -9.8480   -13.9540    10.6500 ha         1 8OC       0.136500
     51 H22        -10.0550   -14.7440    12.9510 ha         1 8OC       0.127000
     52 H23         -7.1370   -14.3060     7.0710 h1         1 8OC       0.103033
     53 H24         -7.2010   -13.8880     8.8220 h1         1 8OC       0.103033
     54 H25         -6.6560   -15.5260     8.3060 h1         1 8OC       0.103033
     55 H26         -8.3190   -14.3270    17.8880 ha         1 8OC       0.117000
     56 H27         -6.4600   -14.9440    19.3790 ha         1 8OC       0.125000
     57 H28        -12.0960   -19.3350    13.6370 ho         1 8OC       0.455000
     58 O02         -6.2960   -17.2820    20.7830 os         1 8OC      -0.339100
     59 O31         -9.8720   -14.0950     7.9840 o          1 8OC      -0.525500
     60 O32         -9.0980   -16.4230     7.2500 o          1 8OC      -0.525500
@<TRIPOS>BOND
     1     1     2 1   
     2     1    12 1   
     3     1    29 1   
     4     1    32 1   
     5     2     3 1   
     6     2    17 1   
     7     2    18 1   
     8     3     4 1   
     9     3    33 1   
    10     3    34 1   
    11     4     5 ar  
    12     4    16 ar  
    13     5    13 ar  
    14     5    35 1   
    15     6    36 1   
    16     6    37 1   
    17     6    38 1   
    18     6    58 1   
    19     7     8 ar  
    20     7    26 ar  
    21     7    58 1   
    22     8     9 ar  
    23     8    39 1   
    24     9    10 ar  
    25     9    40 1   
    26    10    11 1   
    27    10    25 ar  
    28    11    28 1   
    29    11    41 1   
    30    11    42 1   
    31    12    28 1   
    32    12    43 1   
    33    12    44 1   
    34    13    14 ar  
    35    13    45 1   
    36    14    15 ar  
    37    14    27 1   
    38    15    16 ar  
    39    15    46 1   
    40    16    47 1   
    41    17    28 1   
    42    17    30 2   
    43    18    19 ar  
    44    18    23 ar  
    45    19    20 ar  
    46    19    48 1   
    47    20    21 ar  
    48    20    49 1   
    49    21    22 ar  
    50    21    31 1   
    51    22    23 ar  
    52    22    50 1   
    53    23    51 1   
    54    24    31 1   
    55    24    52 1   
    56    24    53 1   
    57    24    54 1   
    58    25    26 ar  
    59    25    55 1   
    60    26    56 1   
    61    29    57 1   
    62    31    59 2   
    63    31    60 2   
@<TRIPOS>SUBSTRUCTURE
     1 8OC         1 TEMP              0 ****  ****    0 ROOT
