@<TRIPOS>MOLECULE
8OE
   24    25     1     0     0
SMALL
No Charge or Current Charge


@<TRIPOS>ATOM
      1 C02         -4.4190    -0.6220     0.0110 ca         1 8OE       0.297000
      2 C03         -4.0750    -0.2360     1.3150 ca         1 8OE      -0.172500
      3 C04         -2.7740     0.2200     1.5980 ca         1 8OE      -0.059500
      4 C05         -1.8120     0.2810     0.5750 ca         1 8OE       0.054100
      5 C06         -2.1620    -0.0930    -0.7390 ca         1 8OE      -0.059500
      6 C07         -3.4650    -0.5480    -1.0150 ca         1 8OE      -0.172500
      7 C09          0.6070     0.2120     0.3580 ca         1 8OE       0.598300
      8 C11          1.8220    -1.6380    -0.3470 ca         1 8OE       0.395900
      9 C12          2.9600    -0.8520    -0.6200 ca         1 8OE       0.022000
     10 C14          2.9050     0.5290    -0.3800 ca         1 8OE      -0.036000
     11 C15          1.7090     1.0710     0.1220 ca         1 8OE       0.039000
     12 N01         -5.6840    -1.0630    -0.2610 nv         1 8OE      -1.070000
     13 N10          0.6630    -1.1260     0.1370 nb         1 8OE      -0.725000
     14 O08         -0.5520     0.7540     0.8730 os         1 8OE      -0.345400
     15 Cl1          4.4350    -1.5850    -1.2480 cl         1 8OE      -0.176000
     16 Cl2          1.6110     2.8080     0.4380 cl         1 8OE      -0.156000
     17 H031        -4.8110    -0.2870     2.1130 ha         1 8OE       0.116000
     18 H041        -2.5100     0.5230     2.6080 ha         1 8OE       0.124500
     19 H061        -1.4330    -0.0300    -1.5440 ha         1 8OE       0.124500
     20 H071        -3.7290    -0.8400    -2.0280 ha         1 8OE       0.116000
     21 H111         1.8400    -2.7140    -0.5210 h4         1 8OE       0.039100
     22 H141         3.7650     1.1640    -0.5750 ha         1 8OE       0.148000
     23 H012        -6.4130    -0.9820     0.4460 hn         1 8OE       0.450000
     24 H011        -5.9780    -1.2070    -1.2260 hn         1 8OE       0.450000
@<TRIPOS>BOND
     1     1     2 ar  
     2     1     6 ar  
     3     1    12 1   
     4     2     3 ar  
     5     2    17 1   
     6     3     4 ar  
     7     3    18 1   
     8     4     5 ar  
     9     4    14 1   
    10     5     6 ar  
    11     5    19 1   
    12     6    20 1   
    13     7    11 ar  
    14     7    13 ar  
    15     7    14 1   
    16     8     9 ar  
    17     8    13 ar  
    18     8    21 1   
    19     9    10 ar  
    20     9    15 1   
    21    10    11 ar  
    22    10    22 1   
    23    11    16 1   
    24    12    23 1   
    25    12    24 1   
@<TRIPOS>SUBSTRUCTURE
     1 8OE         1 TEMP              0 ****  ****    0 ROOT
