@<TRIPOS>MOLECULE
8OE
   24    25     1     0     0
SMALL
abcg2


@<TRIPOS>ATOM
      1 C02         -4.3370    -0.7350     0.0390 ca         1 8OE       0.297000
      2 C03         -3.6880    -0.5150     1.2600 ca         1 8OE      -0.172500
      3 C04         -2.4370     0.0790     1.3040 ca         1 8OE      -0.059500
      4 C05         -1.8170     0.4690     0.1300 ca         1 8OE       0.054100
      5 C06         -2.4410     0.2680    -1.0890 ca         1 8OE      -0.059500
      6 C07         -3.6900    -0.3270    -1.1340 ca         1 8OE      -0.172500
      7 C09          0.5260     0.4130     0.0500 ca         1 8OE       0.598300
      8 C11          1.6110    -1.5750    -0.2180 ca         1 8OE       0.395900
      9 C12          2.8470    -0.9590    -0.2060 ca         1 8OE       0.022000
     10 C14          2.9150     0.4210    -0.0560 ca         1 8OE      -0.036000
     11 C15          1.7360     1.1190     0.0730 ca         1 8OE       0.039000
     12 N01         -5.5550    -1.3790    -0.0110 nv         1 8OE      -1.070000
     13 N10          0.4820    -0.8880    -0.0910 nb         1 8OE      -0.725000
     14 O08         -0.5980     1.1250     0.1830 os         1 8OE      -0.345400
     15 CL1          4.2880    -1.8900    -0.3760 cl         1 8OE      -0.176000
     16 CL2          1.7360     2.8280     0.2600 cl         1 8OE      -0.156000
     17 H031        -4.1670    -0.8100     2.1850 ha         1 8OE       0.116000
     18 H041        -1.9520     0.2440     2.2580 ha         1 8OE       0.124500
     19 H061        -1.9600     0.5780    -2.0080 ha         1 8OE       0.124500
     20 H071        -4.1710    -0.4800    -2.0930 ha         1 8OE       0.116000
     21 H111         1.5240    -2.6480    -0.3320 h4         1 8OE       0.039100
     22 H141         3.8660     0.9360    -0.0410 ha         1 8OE       0.148000
     23 H012        -6.1030    -1.3460     0.8330 hn         1 8OE       0.450000
     24 H011        -6.1150    -1.1900    -0.8270 hn         1 8OE       0.450000
@<TRIPOS>BOND
     1     1     2 ar  
     2     1     6 ar  
     3     1    12 1   
     4     2     3 ar  
     5     2    17 1   
     6     3     4 ar  
     7     3    18 1   
     8     4     5 ar  
     9     4    14 1   
    10     5     6 ar  
    11     5    19 1   
    12     6    20 1   
    13     7    11 ar  
    14     7    13 ar  
    15     7    14 1   
    16     8     9 ar  
    17     8    13 ar  
    18     8    21 1   
    19     9    10 ar  
    20     9    15 1   
    21    10    11 ar  
    22    10    22 1   
    23    11    16 1   
    24    12    23 1   
    25    12    24 1   
@<TRIPOS>SUBSTRUCTURE
     1 8OE         1 TEMP              0 ****  ****    0 ROOT
