@<TRIPOS>MOLECULE
8OF
   33    35     1     0     0
SMALL
No Charge or Current Charge


@<TRIPOS>ATOM
      1 C9           4.0840     1.8720     0.6440 ca         1 8OF      -0.120000
      2 C12          5.1020     0.9090     0.6300 ca         1 8OF      -0.096000
      3 C4           2.7700     1.5100     0.3080 ca         1 8OF      -0.090000
      4 C8           4.8030    -0.4180     0.2830 ca         1 8OF      -0.091000
      5 C13         -2.1440     1.5340    -0.7980 ca         1 8OF      -0.093500
      6 C14         -1.8540    -0.5070     0.4820 ca         1 8OF      -0.093500
      7 C15         -3.5380     1.4430    -0.6250 ca         1 8OF      -0.155000
      8 C16         -3.2470    -0.6020     0.6580 ca         1 8OF      -0.155000
      9 C6           0.9320    -1.5660    -0.7350 ca         1 8OF      -0.269000
     10 C11          2.0010    -2.4600    -0.7160 ca         1 8OF       0.389900
     11 C1           2.4640     0.1720    -0.0480 ca         1 8OF      -0.127000
     12 C3           3.4920    -0.8040    -0.0580 ca         1 8OF       0.297000
     13 C10         -1.2930     0.5530    -0.2580 ca         1 8OF       0.240000
     14 C2           1.1530    -0.2320    -0.3880 ca         1 8OF       0.379000
     15 C17         -4.0970     0.3780     0.0980 ca         1 8OF       0.132100
     16 C19         -6.1410    -0.7080     0.9580 c3         1 8OF       0.147900
     17 N7           3.2550    -2.0940    -0.3840 nb         1 8OF      -0.697000
     18 N5           0.0900     0.6780    -0.4330 nu         1 8OF      -0.983000
     19 O18         -5.4700     0.3400     0.2350 os         1 8OF      -0.340100
     20 H1           4.3110     2.9000     0.9170 ha         1 8OF       0.113000
     21 H2           6.1210     1.1880     0.8910 ha         1 8OF       0.115000
     22 H3           2.0000     2.2760     0.3370 ha         1 8OF       0.103000
     23 H4           5.5960    -1.1600     0.2760 ha         1 8OF       0.131000
     24 H5          -1.7280     2.3650    -1.3610 ha         1 8OF       0.122500
     25 H6          -1.2110    -1.2540     0.9380 ha         1 8OF       0.122500
     26 H7          -4.1880     2.2030    -1.0530 ha         1 8OF       0.126000
     27 H8          -3.6450    -1.4330     1.2320 ha         1 8OF       0.126000
     28 H9          -0.0480    -1.9130    -1.0390 ha         1 8OF       0.129000
     29 H10          1.8550    -3.5060    -0.9850 h4         1 8OF       0.013100
     30 H11         -5.9370    -1.6870     0.5040 h1         1 8OF       0.042033
     31 H12         -5.8150    -0.7300     2.0060 h1         1 8OF       0.042033
     32 H13         -7.2250    -0.5460     0.9420 h1         1 8OF       0.042033
     33 H14          0.3940     1.6300    -0.6320 hn         1 8OF       0.495000
@<TRIPOS>BOND
     1     1     2 ar  
     2     1     3 ar  
     3     1    20 1   
     4     2     4 ar  
     5     2    21 1   
     6     3    11 ar  
     7     3    22 1   
     8     4    12 ar  
     9     4    23 1   
    10     5     7 ar  
    11     5    13 ar  
    12     5    24 1   
    13     6     8 ar  
    14     6    13 ar  
    15     6    25 1   
    16     7    15 ar  
    17     7    26 1   
    18     8    15 ar  
    19     8    27 1   
    20     9    10 ar  
    21     9    14 ar  
    22     9    28 1   
    23    10    17 ar  
    24    10    29 1   
    25    11    12 ar  
    26    11    14 ar  
    27    12    17 ar  
    28    13    18 1   
    29    14    18 1   
    30    15    19 1   
    31    16    19 1   
    32    16    30 1   
    33    16    31 1   
    34    16    32 1   
    35    18    33 1   
@<TRIPOS>SUBSTRUCTURE
     1 8OF         1 TEMP              0 ****  ****    0 ROOT
