@<TRIPOS>MOLECULE
8OF
   33    35     1     0     0
SMALL
abcg2


@<TRIPOS>ATOM
      1 C9           4.2130     1.7960     0.6080 ca         1 8OF      -0.120000
      2 C12          5.1740     0.8110     0.3130 ca         1 8OF      -0.096000
      3 C4           2.8790     1.5140     0.4800 ca         1 8OF      -0.090000
      4 C8           4.7790    -0.4360    -0.0890 ca         1 8OF      -0.091000
      5 C13         -2.0860     1.3950    -0.7840 ca         1 8OF      -0.093500
      6 C14         -1.9010    -0.3300     0.8660 ca         1 8OF      -0.093500
      7 C15         -3.4570     1.2240    -0.8140 ca         1 8OF      -0.155000
      8 C16         -3.2740    -0.5280     0.8230 ca         1 8OF      -0.155000
      9 C6           0.7700    -1.3990    -0.5000 ca         1 8OF      -0.269000
     10 C11          1.8180    -2.2960    -0.7280 ca         1 8OF       0.389900
     11 C1           2.4410     0.2420     0.0500 ca         1 8OF      -0.127000
     12 C3           3.4090    -0.7580    -0.2260 ca         1 8OF       0.297000
     13 C10         -1.2900     0.6190     0.0570 ca         1 8OF       0.240000
     14 C2           1.0570    -0.1010    -0.1140 ca         1 8OF       0.379000
     15 C17         -4.0650     0.2520    -0.0180 ca         1 8OF       0.132100
     16 C19         -6.0640    -0.8290     0.6620 c3         1 8OF       0.147900
     17 N7           3.0920    -2.0190    -0.6110 nb         1 8OF      -0.697000
     18 N5           0.0990     0.8400     0.1080 nu         1 8OF      -0.983000
     19 O18         -5.4040     0.1430    -0.1230 os         1 8OF      -0.340100
     20 H1           4.5280     2.7740     0.9430 ha         1 8OF       0.113000
     21 H2           6.2270     1.0410     0.4130 ha         1 8OF       0.115000
     22 H3           2.1660     2.2880     0.7340 ha         1 8OF       0.103000
     23 H4           5.5060    -1.2070    -0.3080 ha         1 8OF       0.131000
     24 H5          -1.6280     2.1430    -1.4200 ha         1 8OF       0.122500
     25 H6          -1.3060    -0.9230     1.5490 ha         1 8OF       0.122500
     26 H7          -4.0660     1.8360    -1.4670 ha         1 8OF       0.126000
     27 H8          -3.7070    -1.2840     1.4640 ha         1 8OF       0.126000
     28 H9          -0.2460    -1.7320    -0.6540 ha         1 8OF       0.129000
     29 H10          1.5690    -3.3060    -1.0400 h4         1 8OF       0.013100
     30 H11         -5.7210    -1.8410     0.4330 h1         1 8OF       0.042033
     31 H12         -5.9350    -0.6480     1.7320 h1         1 8OF       0.042033
     32 H13         -7.1210    -0.7560     0.4210 h1         1 8OF       0.042033
     33 H14          0.3850     1.8050     0.0670 hn         1 8OF       0.495000
@<TRIPOS>BOND
     1     1     2 ar  
     2     1     3 ar  
     3     1    20 1   
     4     2     4 ar  
     5     2    21 1   
     6     3    11 ar  
     7     3    22 1   
     8     4    12 ar  
     9     4    23 1   
    10     5     7 ar  
    11     5    13 ar  
    12     5    24 1   
    13     6     8 ar  
    14     6    13 ar  
    15     6    25 1   
    16     7    15 ar  
    17     7    26 1   
    18     8    15 ar  
    19     8    27 1   
    20     9    10 ar  
    21     9    14 ar  
    22     9    28 1   
    23    10    17 ar  
    24    10    29 1   
    25    11    12 ar  
    26    11    14 ar  
    27    12    17 ar  
    28    13    18 1   
    29    14    18 1   
    30    15    19 1   
    31    16    19 1   
    32    16    30 1   
    33    16    31 1   
    34    16    32 1   
    35    18    33 1   
@<TRIPOS>SUBSTRUCTURE
     1 8OF         1 TEMP              0 ****  ****    0 ROOT
