@<TRIPOS>MOLECULE
8OH
   40    43     1     0     0
SMALL
No Charge or Current Charge


@<TRIPOS>ATOM
      1 C4          -0.1540     0.3320    -0.0980 ca         1 8OH       0.420900
      2 C5           0.3770     1.6390    -0.0800 ca         1 8OH      -0.225000
      3 C6           1.7850     1.7600    -0.0280 ca         1 8OH       0.109000
      4 N1           2.5620     0.6610     0.0020 nb         1 8OH      -0.228000
      5 N3           0.6410    -0.7490    -0.0670 nb         1 8OH      -0.303000
      6 CAM          4.2810    -1.6560     0.0690 ca         1 8OH      -0.065500
      7 CAN          5.1080    -2.7920     0.1010 ca         1 8OH      -0.130500
      8 CAO          4.5450    -4.0760     0.0820 ca         1 8OH      -0.094000
      9 CAP          3.1520    -4.2230     0.0310 ca         1 8OH      -0.130500
     10 CAQ          2.3210    -3.0890    -0.0020 ca         1 8OH      -0.065500
     11 CAK          2.8630    -1.7720     0.0170 cp         1 8OH      -0.150500
     12 C2           1.9730    -0.5530    -0.0180 cp         1 8OH       0.252500
     13 CAC          2.3650     3.0400    -0.0090 ca         1 8OH      -0.203000
     14 CAB          1.5640     4.1870    -0.0400 ca         1 8OH       0.339000
     15 NAL          2.1440     5.4240    -0.0200 nv         1 8OH      -1.089000
     16 CAA          0.1710     4.0680    -0.0920 ca         1 8OH      -0.189000
     17 CAF         -0.4300     2.7990    -0.1120 ca         1 8OH      -0.027000
     18 NAR         -1.5220     0.0870    -0.1480 nu         1 8OH      -0.927100
     19 CAS         -2.1950    -1.2120    -0.2060 c3         1 8OH       0.298100
     20 CAT         -3.6730    -0.9650    -0.2520 cc         1 8OH      -0.245300
     21 SAX         -4.7080    -1.3990     1.1070 ss         1 8OH       0.219000
     22 CAW         -6.1330    -0.8170     0.2510 cc         1 8OH      -0.240000
     23 CAV         -5.8000    -0.3350    -0.9900 cd         1 8OH      -0.135000
     24 CAU         -4.4110    -0.4200    -1.2750 cd         1 8OH      -0.119000
     25 H2           6.1890    -2.6740     0.1410 ha         1 8OH       0.111500
     26 H3           5.1870    -4.9550     0.1070 ha         1 8OH       0.110000
     27 H4           2.7120    -5.2180     0.0160 ha         1 8OH       0.111500
     28 H5           1.2450    -3.2430    -0.0410 ha         1 8OH       0.132500
     29 H6           3.4460     3.1370     0.0290 ha         1 8OH       0.132000
     30 H7           3.1370     5.5100     0.1890 hn         1 8OH       0.464500
     31 H8           1.5640     6.2490     0.1270 hn         1 8OH       0.464500
     32 H9          -0.4520     4.9570    -0.1170 ha         1 8OH       0.114000
     33 H10         -1.5140     2.7350    -0.1520 ha         1 8OH       0.105000
     34 H11         -2.1240     0.9040    -0.1830 hn         1 8OH       0.494000
     35 H12         -1.8880    -1.7700    -1.1020 h1         1 8OH       0.069700
     36 H13         -1.9440    -1.8190     0.6760 h1         1 8OH       0.069700
     37 H14         -7.1040    -0.8750     0.7260 h4         1 8OH       0.151000
     38 H15         -6.5280     0.0710    -1.6870 ha         1 8OH       0.136000
     39 H16         -3.9740    -0.0860    -2.2130 ha         1 8OH       0.135000
     40 H1           4.7550    -0.6760     0.0850 ha         1 8OH       0.132500
@<TRIPOS>BOND
     1     1     2 ar  
     2     1     5 ar  
     3     1    18 1   
     4     2     3 ar  
     5     2    17 ar  
     6     3     4 ar  
     7     3    13 ar  
     8     4    12 ar  
     9     5    12 ar  
    10     6     7 ar  
    11     6    11 ar  
    12     6    40 1   
    13     7     8 ar  
    14     7    25 1   
    15     8     9 ar  
    16     8    26 1   
    17     9    10 ar  
    18     9    27 1   
    19    10    11 ar  
    20    10    28 1   
    21    11    12 1   
    22    13    14 ar  
    23    13    29 1   
    24    14    15 1   
    25    14    16 ar  
    26    15    30 1   
    27    15    31 1   
    28    16    17 ar  
    29    16    32 1   
    30    17    33 1   
    31    18    19 1   
    32    18    34 1   
    33    19    20 1   
    34    19    35 1   
    35    19    36 1   
    36    20    21 1   
    37    20    24 2   
    38    21    22 1   
    39    22    23 2   
    40    22    37 1   
    41    23    24 1   
    42    23    38 1   
    43    24    39 1   
@<TRIPOS>SUBSTRUCTURE
     1 8OH         1 TEMP              0 ****  ****    0 ROOT
