@<TRIPOS>MOLECULE
8OH
   40    43     1     0     0
SMALL
abcg2


@<TRIPOS>ATOM
      1 C4          -0.1530     0.4760    -0.3380 ca         1 8OH       0.420900
      2 C5           0.4170     1.7790    -0.1830 ca         1 8OH      -0.225000
      3 C6           1.8130     1.8180     0.0300 ca         1 8OH       0.109000
      4 N1           2.5520     0.6790     0.0980 nb         1 8OH      -0.228000
      5 N3           0.5990    -0.6060    -0.2680 nb         1 8OH      -0.303000
      6 CAM          4.0870    -1.6540     0.2470 ca         1 8OH      -0.065500
      7 CAN          4.8310    -2.8210     0.3160 ca         1 8OH      -0.130500
      8 CAO          4.2100    -4.0570     0.1730 ca         1 8OH      -0.094000
      9 CAP          2.8400    -4.1140    -0.0410 ca         1 8OH      -0.130500
     10 CAQ          2.0940    -2.9470    -0.1110 ca         1 8OH      -0.065500
     11 CAK          2.7090    -1.7020     0.0320 cp         1 8OH      -0.150500
     12 C2           1.9140    -0.4520    -0.0450 cp         1 8OH       0.252500
     13 CAC          2.4600     3.0520     0.1810 ca         1 8OH      -0.203000
     14 CAB          1.7500     4.2430     0.1280 ca         1 8OH       0.339000
     15 NAL          2.3710     5.4530     0.2220 nv         1 8OH      -1.089000
     16 CAA          0.3460     4.1910    -0.0750 ca         1 8OH      -0.189000
     17 CAF         -0.2940     2.9920    -0.2220 ca         1 8OH      -0.027000
     18 NAR         -1.4720     0.3170    -0.5450 nu         1 8OH      -0.927100
     19 CAS         -2.0860    -0.9670    -0.8070 c3         1 8OH       0.298100
     20 CAT         -3.5410    -0.9320    -0.4830 cc         1 8OH      -0.245300
     21 SAX         -4.0950    -0.4290     1.0710 ss         1 8OH       0.219000
     22 CAW         -5.7330    -0.7030     0.6450 cc         1 8OH      -0.240000
     23 CAV         -5.8480    -1.1610    -0.6310 cd         1 8OH      -0.135000
     24 CAU         -4.5870    -1.2880    -1.2790 cd         1 8OH      -0.119000
     25 H2           5.8990    -2.7680     0.4810 ha         1 8OH       0.111500
     26 H3           4.7930    -4.9680     0.2300 ha         1 8OH       0.110000
     27 H4           2.3480    -5.0720    -0.1550 ha         1 8OH       0.111500
     28 H5           1.0260    -2.9980    -0.2760 ha         1 8OH       0.132500
     29 H6           3.5310     3.0570     0.3410 ha         1 8OH       0.132000
     30 H7           3.2950     5.4720     0.6190 hn         1 8OH       0.464500
     31 H8           1.8070     6.2480     0.4740 hn         1 8OH       0.464500
     32 H9          -0.2220     5.1120    -0.1110 ha         1 8OH       0.114000
     33 H10         -1.3680     3.0070    -0.3650 ha         1 8OH       0.105000
     34 H11         -2.0170     1.1280    -0.7860 hn         1 8OH       0.494000
     35 H12         -1.9670    -1.2640    -1.8540 h1         1 8OH       0.069700
     36 H13         -1.5730    -1.7190    -0.2080 h1         1 8OH       0.069700
     37 H14         -6.5220    -0.5030     1.3540 h4         1 8OH       0.151000
     38 H15         -6.7940    -1.3910    -1.0990 ha         1 8OH       0.136000
     39 H16         -4.4620    -1.6270    -2.2980 ha         1 8OH       0.135000
     40 H1           4.5750    -0.6960     0.3600 ha         1 8OH       0.132500
@<TRIPOS>BOND
     1     1     2 ar  
     2     1     5 ar  
     3     1    18 1   
     4     2     3 ar  
     5     2    17 ar  
     6     3     4 ar  
     7     3    13 ar  
     8     4    12 ar  
     9     5    12 ar  
    10     6     7 ar  
    11     6    11 ar  
    12     6    40 1   
    13     7     8 ar  
    14     7    25 1   
    15     8     9 ar  
    16     8    26 1   
    17     9    10 ar  
    18     9    27 1   
    19    10    11 ar  
    20    10    28 1   
    21    11    12 1   
    22    13    14 ar  
    23    13    29 1   
    24    14    15 1   
    25    14    16 ar  
    26    15    30 1   
    27    15    31 1   
    28    16    17 ar  
    29    16    32 1   
    30    17    33 1   
    31    18    19 1   
    32    18    34 1   
    33    19    20 1   
    34    19    35 1   
    35    19    36 1   
    36    20    21 1   
    37    20    24 2   
    38    21    22 1   
    39    22    23 2   
    40    22    37 1   
    41    23    24 1   
    42    23    38 1   
    43    24    39 1   
@<TRIPOS>SUBSTRUCTURE
     1 8OH         1 TEMP              0 ****  ****    0 ROOT
