@<TRIPOS>MOLECULE
8OJ
   62    65     1     0     0
SMALL
bcc


@<TRIPOS>ATOM
      1 C1           7.3970     3.6240     1.7150 c3         1 8OJ       0.093300
      2 N1           7.4370     2.3660     1.0040 ns         1 8OJ      -0.564900
      3 C2           6.4280     1.9400     0.2420 c          1 8OJ       0.651100
      4 O3           5.3820     2.5600     0.1000 o          1 8OJ      -0.610100
      5 C4           6.6460     0.6080    -0.4700 c3         1 8OJ       0.035700
      6 C5           6.7980     0.8230    -1.9860 c3         1 8OJ      -0.069700
      7 C6           7.9440     1.7860    -2.2850 c3         1 8OJ      -0.090100
      8 C7           7.0140    -0.5050    -2.7010 c3         1 8OJ      -0.090100
      9 N8           5.5230    -0.2420    -0.1490 ns         1 8OJ      -0.554900
     10 C9           5.6400    -1.4800     0.3610 c          1 8OJ       0.610600
     11 O10          6.7050    -2.0490     0.5640 o          1 8OJ      -0.598100
     12 C11          4.3800    -2.1630     0.6830 cc         1 8OJ       0.169200
     13 C12          4.1550    -3.4320     1.1170 cd         1 8OJ      -0.185300
     14 C13          2.7530    -3.5520     1.2780 cd         1 8OJ      -0.267300
     15 C14          2.2180    -2.3430     0.9350 cc         1 8OJ       0.322200
     16 O15          3.2060    -1.5040     0.5710 os         1 8OJ      -0.324800
     17 C16          0.8580    -1.8340     0.9240 ca         1 8OJ      -0.118500
     18 C17          0.5860    -0.4800     0.7100 ca         1 8OJ      -0.105000
     19 C18         -0.7190    -0.0180     0.7300 ca         1 8OJ      -0.109500
     20 C19         -1.7820    -0.8840     0.9670 ca         1 8OJ      -0.085300
     21 C20         -1.5100    -2.2350     1.1670 ca         1 8OJ      -0.109500
     22 C21         -0.2100    -2.7050     1.1480 ca         1 8OJ      -0.105000
     23 C22         -3.1910    -0.3770     0.9830 c3         1 8OJ       0.076000
     24 S23         -3.8010    -0.4570    -0.7350 ss         1 8OJ      -0.212300
     25 C24         -5.4170     0.1880    -0.5520 cc         1 8OJ       0.518800
     26 N25         -5.8770     0.5300     0.6080 nd         1 8OJ      -0.653300
     27 C26         -7.1470     1.0060     0.6120 cd         1 8OJ       0.180400
     28 C27         -7.9370     1.1470    -0.4850 cc         1 8OJ      -0.271400
     29 C28         -7.4330     0.7890    -1.7720 c          1 8OJ       0.721700
     30 N29         -6.1280     0.2930    -1.6990 ns         1 8OJ      -0.467400
     31 C36         -9.2710     1.7310    -0.1470 c5         1 8OJ      -0.009200
     32 C37         -9.3100     1.6040     1.3910 c5         1 8OJ      -0.082400
     33 C38         -7.8450     1.4840     1.8470 c5         1 8OJ      -0.037200
     34 O39         -8.0030     0.8730    -2.8490 o          1 8OJ      -0.615500
     35 H1           7.2990     4.4680     1.0320 h1         1 8OJ       0.042367
     36 H2           6.5700     3.6560     2.4230 h1         1 8OJ       0.042367
     37 H3           8.3270     3.7340     2.2650 h1         1 8OJ       0.042367
     38 H4           8.2630     1.7980     1.0850 hn         1 8OJ       0.321500
     39 H5           7.5480     0.1180    -0.0980 h1         1 8OJ       0.084700
     40 H6           5.8670     1.2700    -2.3530 hc         1 8OJ       0.065700
     41 H7           8.8830     1.4290    -1.8560 hc         1 8OJ       0.039033
     42 H8           8.0890     1.8750    -3.3620 hc         1 8OJ       0.039033
     43 H9           7.7600     2.7900    -1.9020 hc         1 8OJ       0.039033
     44 H10          6.1840    -1.1950    -2.5500 hc         1 8OJ       0.039033
     45 H11          7.1090    -0.3410    -3.7760 hc         1 8OJ       0.039033
     46 H12          7.9290    -0.9930    -2.3590 hc         1 8OJ       0.039033
     47 H13          4.6050     0.1460    -0.3050 hn         1 8OJ       0.342500
     48 H14          4.9010    -4.1880     1.3000 ha         1 8OJ       0.178000
     49 H15          2.2170    -4.4220     1.6200 ha         1 8OJ       0.165000
     50 H16          1.3880     0.2250     0.5390 ha         1 8OJ       0.144500
     51 H17         -0.9090     1.0370     0.5700 ha         1 8OJ       0.140500
     52 H18         -2.3240    -2.9280     1.3420 ha         1 8OJ       0.140500
     53 H19         -0.0300    -3.7610     1.3060 ha         1 8OJ       0.144500
     54 H20         -3.8350    -0.9880     1.6120 h1         1 8OJ       0.090200
     55 H21         -3.2460     0.6560     1.3210 h1         1 8OJ       0.090200
     56 H22         -9.3320     2.7750    -0.4690 hc         1 8OJ       0.060200
     57 H23         -9.8230     2.4400     1.8630 hc         1 8OJ       0.049200
     58 H24         -7.7090     0.8050     2.6900 hc         1 8OJ       0.066200
     59 H25         -5.7030     0.0170    -2.5770 hn         1 8OJ       0.339500
     60 H26        -10.1000     1.2070    -0.6260 hc         1 8OJ       0.060200
     61 H27         -9.8470     0.6960     1.6660 hc         1 8OJ       0.049200
     62 H28         -7.4250     2.4500     2.1460 hc         1 8OJ       0.066200
@<TRIPOS>BOND
     1     1     2 1   
     2     1    35 1   
     3     1    36 1   
     4     1    37 1   
     5     2     3 1   
     6     2    38 1   
     7     3     4 2   
     8     3     5 1   
     9     5     6 1   
    10     5     9 1   
    11     5    39 1   
    12     6     7 1   
    13     6     8 1   
    14     6    40 1   
    15     7    41 1   
    16     7    42 1   
    17     7    43 1   
    18     8    44 1   
    19     8    45 1   
    20     8    46 1   
    21     9    10 1   
    22     9    47 1   
    23    10    11 2   
    24    10    12 1   
    25    12    13 2   
    26    12    16 1   
    27    13    14 1   
    28    13    48 1   
    29    14    15 2   
    30    14    49 1   
    31    15    16 1   
    32    15    17 1   
    33    17    18 ar  
    34    17    22 ar  
    35    18    19 ar  
    36    18    50 1   
    37    19    20 ar  
    38    19    51 1   
    39    20    21 ar  
    40    20    23 1   
    41    21    22 ar  
    42    21    52 1   
    43    22    53 1   
    44    23    24 1   
    45    23    54 1   
    46    23    55 1   
    47    24    25 1   
    48    25    26 2   
    49    25    30 1   
    50    26    27 1   
    51    27    28 2   
    52    27    33 1   
    53    28    29 1   
    54    28    31 1   
    55    29    30 1   
    56    29    34 2   
    57    30    59 1   
    58    31    32 1   
    59    31    56 1   
    60    31    60 1   
    61    32    33 1   
    62    32    57 1   
    63    32    61 1   
    64    33    58 1   
    65    33    62 1   
@<TRIPOS>SUBSTRUCTURE
     1 8OJ         1 TEMP              0 ****  ****    0 ROOT
