@<TRIPOS>MOLECULE
8OJ
   62    65     1     0     0
SMALL
No Charge or Current Charge


@<TRIPOS>ATOM
      1 C1           8.1030     3.8280     1.5840 c3         1 8OJ       0.093300
      2 N1           7.9960     2.5430     0.8890 ns         1 8OJ      -0.497900
      3 C2           6.8080     1.9890     0.4580 c          1 8OJ       0.584100
      4 O3           5.7340     2.5470     0.6530 o          1 8OJ      -0.610100
      5 C4           6.9290     0.6100    -0.2590 c3         1 8OJ       0.035700
      6 C5           7.1260     0.7510    -1.8050 c3         1 8OJ      -0.069700
      7 C6           8.3650     1.6020    -2.1810 c3         1 8OJ      -0.090100
      8 C7           7.1860    -0.6180    -2.5310 c3         1 8OJ      -0.090100
      9 N8           5.7190    -0.1900     0.0480 ns         1 8OJ      -0.487900
     10 C9           5.7060    -1.5290     0.3810 c          1 8OJ       0.543600
     11 O10          6.7300    -2.1940     0.4670 o          1 8OJ      -0.598100
     12 C11          4.3370    -2.0580     0.6200 cc         1 8OJ       0.059500
     13 C12          4.0150    -3.3470     0.9670 cd         1 8OJ      -0.102000
     14 C13          2.6090    -3.4050     1.0900 cd         1 8OJ      -0.184000
     15 C14          2.1500    -2.1450     0.8100 cc         1 8OJ       0.212500
     16 O15          3.1900    -1.2930     0.5200 os         1 8OJ      -0.236000
     17 C16          0.7480    -1.7060     0.8130 ca         1 8OJ      -0.118500
     18 C17          0.4390    -0.3480     0.5820 ca         1 8OJ      -0.087000
     19 C18         -0.8950     0.0950     0.5790 ca         1 8OJ      -0.091500
     20 C19         -1.9460    -0.8100     0.8070 ca         1 8OJ      -0.085300
     21 C20         -1.6470    -2.1660     1.0350 ca         1 8OJ      -0.091500
     22 C21         -0.3130    -2.6110     1.0380 ca         1 8OJ      -0.087000
     23 C22         -3.3910    -0.3310     0.8010 c3         1 8OJ       0.123900
     24 S23         -4.1040    -0.4460    -0.9040 ss         1 8OJ      -0.260200
     25 C24         -5.7520     0.1410    -0.7110 cc         1 8OJ       0.518800
     26 N25         -6.0920     0.5090     0.5230 nd         1 8OJ      -0.653300
     27 C26         -7.4000     0.9670     0.6500 cd         1 8OJ       0.180400
     28 C27         -8.2640     1.0360    -0.4070 cc         1 8OJ      -0.271400
     29 C28         -7.8630     0.6280    -1.7490 c          1 8OJ       0.579200
     30 N29         -6.5850     0.1940    -1.7900 ns         1 8OJ      -0.400400
     31 C36         -9.6080     1.5630     0.0020 c5         1 8OJ      -0.009200
     32 C37         -9.6090     1.4250     1.5550 c5         1 8OJ      -0.082400
     33 C38         -8.0810     1.4610     1.9010 c5         1 8OJ      -0.037200
     34 O39         -8.5780     0.6620    -2.7370 o          1 8OJ      -0.540000
     35 H1           7.7050     4.6270     0.9460 h1         1 8OJ       0.042367
     36 H2           7.5320     3.7900     2.5210 h1         1 8OJ       0.042367
     37 H3           9.1560     4.0360     1.8110 h1         1 8OJ       0.042367
     38 H4           8.8450     2.0210     0.7010 hn         1 8OJ       0.321500
     39 H5           7.8050     0.1030     0.1660 h1         1 8OJ       0.084700
     40 H6           6.2480     1.2790    -2.1990 hc         1 8OJ       0.065700
     41 H7           9.2790     1.1770    -1.7460 hc         1 8OJ       0.039033
     42 H8           8.4940     1.6400    -3.2690 hc         1 8OJ       0.039033
     43 H9           8.2600     2.6360    -1.8320 hc         1 8OJ       0.039033
     44 H10          6.2490    -1.1740    -2.4130 hc         1 8OJ       0.039033
     45 H11          7.3500    -0.4810    -3.6070 hc         1 8OJ       0.039033
     46 H12          8.0050    -1.2330    -2.1370 hc         1 8OJ       0.039033
     47 H13          4.8190     0.2780     0.0370 hn         1 8OJ       0.342500
     48 H14          4.7150    -4.1630     1.1160 ha         1 8OJ       0.160000
     49 H15          2.0210    -4.2760     1.3560 ha         1 8OJ       0.147000
     50 H16          1.2330     0.3740     0.4030 ha         1 8OJ       0.126500
     51 H17         -1.1100     1.1460     0.3960 ha         1 8OJ       0.122500
     52 H18         -2.4500    -2.8790     1.2080 ha         1 8OJ       0.122500
     53 H19         -0.1190    -3.6650     1.2150 ha         1 8OJ       0.126500
     54 H20         -3.9890    -0.9450     1.4870 h1         1 8OJ       0.090200
     55 H21         -3.4390     0.7100     1.1460 h1         1 8OJ       0.090200
     56 H22         -9.7190     2.6100    -0.3040 hc         1 8OJ       0.060200
     57 H23        -10.1810     2.2140     2.0550 hc         1 8OJ       0.049200
     58 H24         -7.8500     0.8430     2.7750 hc         1 8OJ       0.066200
     59 H25         -6.2410    -0.1050    -2.6900 hn         1 8OJ       0.339500
     60 H26        -10.4310     1.0030    -0.4580 hc         1 8OJ       0.060200
     61 H27        -10.0460     0.4640     1.8530 hc         1 8OJ       0.049200
     62 H28         -7.7580     2.4810     2.1400 hc         1 8OJ       0.066200
@<TRIPOS>BOND
     1     1     2 1   
     2     1    35 1   
     3     1    36 1   
     4     1    37 1   
     5     2     3 1   
     6     2    38 1   
     7     3     4 2   
     8     3     5 1   
     9     5     6 1   
    10     5     9 1   
    11     5    39 1   
    12     6     7 1   
    13     6     8 1   
    14     6    40 1   
    15     7    41 1   
    16     7    42 1   
    17     7    43 1   
    18     8    44 1   
    19     8    45 1   
    20     8    46 1   
    21     9    10 1   
    22     9    47 1   
    23    10    11 2   
    24    10    12 1   
    25    12    13 2   
    26    12    16 1   
    27    13    14 1   
    28    13    48 1   
    29    14    15 2   
    30    14    49 1   
    31    15    16 1   
    32    15    17 1   
    33    17    18 ar  
    34    17    22 ar  
    35    18    19 ar  
    36    18    50 1   
    37    19    20 ar  
    38    19    51 1   
    39    20    21 ar  
    40    20    23 1   
    41    21    22 ar  
    42    21    52 1   
    43    22    53 1   
    44    23    24 1   
    45    23    54 1   
    46    23    55 1   
    47    24    25 1   
    48    25    26 2   
    49    25    30 1   
    50    26    27 1   
    51    27    28 2   
    52    27    33 1   
    53    28    29 1   
    54    28    31 1   
    55    29    30 1   
    56    29    34 2   
    57    30    59 1   
    58    31    32 1   
    59    31    56 1   
    60    31    60 1   
    61    32    33 1   
    62    32    57 1   
    63    32    61 1   
    64    33    58 1   
    65    33    62 1   
@<TRIPOS>SUBSTRUCTURE
     1 8OJ         1 TEMP              0 ****  ****    0 ROOT
