@<TRIPOS>MOLECULE
8OK
   59    63     1     0     0
SMALL
bcc


@<TRIPOS>ATOM
      1 C4           1.4270    -3.3690    -0.0460 ca         1 8OK       0.504600
      2 C5           2.5660    -2.5340    -0.0340 ca         1 8OK      -0.359600
      3 C6           2.3040    -1.1240    -0.0290 ca         1 8OK       0.750200
      4 N1           1.0670    -0.6640    -0.0310 nb         1 8OK      -0.830000
      5 N3           0.1690    -2.8560    -0.0470 nb         1 8OK      -0.762000
      6 CAM         -5.4650     1.8630     0.7380 c6         1 8OK       0.166800
      7 CAN         -6.7440     2.5330     0.2720 c6         1 8OK       0.122400
      8 OBF         -7.8370     1.6450     0.3040 os         1 8OK      -0.397600
      9 CAO         -7.5840     0.5390    -0.5290 c6         1 8OK       0.122400
     10 CAP         -6.3410    -0.2240    -0.1060 c6         1 8OK       0.166800
     11 NAA         -5.1980     0.6670    -0.0480 nh         1 8OK      -0.657000
     12 CAS         -3.9270     0.1190    -0.0140 ca         1 8OK       0.185600
     13 CAT         -2.7850     0.9390     0.0160 ca         1 8OK      -0.209500
     14 CAF         -1.5140     0.4000     0.0060 ca         1 8OK      -0.047500
     15 CAR         -3.7110    -1.2690    -0.0420 ca         1 8OK      -0.209500
     16 CAQ         -2.4320    -1.7960    -0.0530 ca         1 8OK      -0.047500
     17 CAU         -1.3030    -0.9800    -0.0280 cp         1 8OK      -0.192500
     18 C2           0.0570    -1.5510    -0.0350 cp         1 8OK       0.790500
     19 CAX          1.5890    -4.7620    -0.0490 ca         1 8OK      -0.284300
     20 CAY          2.8510    -5.3370    -0.0390 ca         1 8OK       0.195600
     21 NAC          3.0230    -6.6910    -0.0870 nv         1 8OK      -0.837200
     22 CAZ          3.9870    -4.4870    -0.0230 ca         1 8OK      -0.208000
     23 CBA          3.8400    -3.1280    -0.0180 ca         1 8OK      -0.046000
     24 NAB          3.3040    -0.2320    -0.0110 nu         1 8OK      -0.873900
     25 CAW          3.1000     1.1980    -0.0910 c3         1 8OK       0.230800
     26 CAV          4.4060     1.9250     0.2120 c3         1 8OK      -0.050100
     27 CAL          4.2380     3.4140     0.0920 ca         1 8OK      -0.083300
     28 CAG          4.5460     4.0750    -1.0940 ca         1 8OK      -0.121500
     29 CAH          4.3620     5.4470    -1.2140 ca         1 8OK      -0.126000
     30 CAI          3.8630     6.1780    -0.1440 ca         1 8OK      -0.125000
     31 CAJ          3.5500     5.5290     1.0430 ca         1 8OK      -0.126000
     32 CAK          3.7360     4.1590     1.1580 ca         1 8OK      -0.121500
     33 H2          -5.5430     1.6130     1.8060 h1         1 8OK       0.048950
     34 H3          -6.9760     3.3700     0.9310 h1         1 8OK       0.052700
     35 H4          -6.5990     2.9280    -0.7430 h1         1 8OK       0.052700
     36 H5          -8.4500    -0.1220    -0.4760 h1         1 8OK       0.052700
     37 H6          -7.4700     0.8650    -1.5720 h1         1 8OK       0.052700
     38 H7          -6.5160    -0.7210     0.8600 h1         1 8OK       0.048950
     39 H8          -6.1700    -1.0020    -0.8500 h1         1 8OK       0.048950
     40 H9          -2.8800     2.0160     0.0250 ha         1 8OK       0.129000
     41 H10         -0.6640     1.0690     0.0210 ha         1 8OK       0.149000
     42 H11         -4.5410    -1.9600    -0.0390 ha         1 8OK       0.129000
     43 H12         -2.3100    -2.8700    -0.0680 ha         1 8OK       0.149000
     44 H13          0.7020    -5.3850    -0.0570 ha         1 8OK       0.149000
     45 H14          2.2390    -7.2630     0.1770 hn         1 8OK       0.405800
     46 H15          3.9060    -7.0550     0.2310 hn         1 8OK       0.405800
     47 H16          4.9790    -4.9240    -0.0110 ha         1 8OK       0.131000
     48 H17          4.7380    -2.5210     0.0020 ha         1 8OK       0.119000
     49 H18          4.2450    -0.5630    -0.1410 hn         1 8OK       0.434800
     50 H19          2.7340     1.4840    -1.0830 h1         1 8OK       0.060700
     51 H20          2.3320     1.4940     0.6250 h1         1 8OK       0.060700
     52 H21          4.7370     1.6650     1.2200 hc         1 8OK       0.050200
     53 H22          5.1830     1.5840    -0.4790 hc         1 8OK       0.050200
     54 H23          4.9420     3.5140    -1.9330 ha         1 8OK       0.129500
     55 H24          4.6140     5.9440    -2.1420 ha         1 8OK       0.131500
     56 H25          3.7230     7.2480    -0.2350 ha         1 8OK       0.131000
     57 H26          3.1640     6.0910     1.8850 ha         1 8OK       0.131500
     58 H27          3.4920     3.6600     2.0890 ha         1 8OK       0.129500
     59 H1          -4.6580     2.5840     0.6320 h1         1 8OK       0.048950
@<TRIPOS>BOND
     1     1     2 ar  
     2     1     5 ar  
     3     1    19 ar  
     4     2     3 ar  
     5     2    23 ar  
     6     3     4 ar  
     7     3    24 1   
     8     4    18 ar  
     9     5    18 ar  
    10     6     7 1   
    11     6    11 1   
    12     6    33 1   
    13     6    59 1   
    14     7     8 1   
    15     7    34 1   
    16     7    35 1   
    17     8     9 1   
    18     9    10 1   
    19     9    36 1   
    20     9    37 1   
    21    10    11 1   
    22    10    38 1   
    23    10    39 1   
    24    11    12 1   
    25    12    13 ar  
    26    12    15 ar  
    27    13    14 ar  
    28    13    40 1   
    29    14    17 ar  
    30    14    41 1   
    31    15    16 ar  
    32    15    42 1   
    33    16    17 ar  
    34    16    43 1   
    35    17    18 1   
    36    19    20 ar  
    37    19    44 1   
    38    20    21 1   
    39    20    22 ar  
    40    21    45 1   
    41    21    46 1   
    42    22    23 ar  
    43    22    47 1   
    44    23    48 1   
    45    24    25 1   
    46    24    49 1   
    47    25    26 1   
    48    25    50 1   
    49    25    51 1   
    50    26    27 1   
    51    26    52 1   
    52    26    53 1   
    53    27    28 ar  
    54    27    32 ar  
    55    28    29 ar  
    56    28    54 1   
    57    29    30 ar  
    58    29    55 1   
    59    30    31 ar  
    60    30    56 1   
    61    31    32 ar  
    62    31    57 1   
    63    32    58 1   
@<TRIPOS>SUBSTRUCTURE
     1 8OK         1 TEMP              0 ****  ****    0 ROOT
