@<TRIPOS>MOLECULE
8OK
   59    63     1     0     0
SMALL
No Charge or Current Charge


@<TRIPOS>ATOM
      1 C4           1.4300    -3.4000     0.0590 ca         1 8OK       0.111000
      2 C5           2.5520    -2.5400     0.0440 ca         1 8OK      -0.229000
      3 C6           2.2970    -1.1520     0.0210 ca         1 8OK       0.421900
      4 N1           1.0450    -0.6700     0.0140 nb         1 8OK      -0.304000
      5 N3           0.1820    -2.8910     0.0520 nb         1 8OK      -0.236000
      6 CAM         -5.7660     1.5980     1.0210 c6         1 8OK       0.166800
      7 CAN         -7.0000     2.4320     0.5610 c6         1 8OK       0.145600
      8 OBF         -8.0830     1.5650     0.1490 os         1 8OK      -0.444000
      9 CAO         -7.7110     0.7010    -0.9510 c6         1 8OK       0.145600
     10 CAP         -6.5100    -0.2110    -0.5590 c6         1 8OK       0.166800
     11 NAA         -5.3590     0.5730     0.0020 nh         1 8OK      -0.795400
     12 CAS         -4.0470     0.0410     0.0110 ca         1 8OK       0.324000
     13 CAT         -2.9400     0.9030    -0.0090 ca         1 8OK      -0.191500
     14 CAF         -1.6290     0.3970    -0.0030 ca         1 8OK      -0.029500
     15 CAR         -3.8190    -1.3470     0.0330 ca         1 8OK      -0.191500
     16 CAQ         -2.5110    -1.8610     0.0400 ca         1 8OK      -0.029500
     17 CAU         -1.3780    -1.0020     0.0230 cp         1 8OK      -0.192500
     18 C2           0.0270    -1.5510     0.0300 cp         1 8OK       0.264500
     19 CAX          1.6280    -4.7900     0.0820 ca         1 8OK      -0.201000
     20 CAY          2.9200    -5.3270     0.0890 ca         1 8OK       0.334000
     21 NAC          3.0970    -6.6820     0.1130 nv         1 8OK      -1.086000
     22 CAZ          4.0310    -4.4770     0.0740 ca         1 8OK      -0.190000
     23 CBA          3.8560    -3.0840     0.0510 ca         1 8OK      -0.028000
     24 NAB          3.3200    -0.2070     0.0050 nu         1 8OK      -0.929100
     25 CAW          3.1760     1.2610    -0.0190 c3         1 8OK       0.230800
     26 CAV          4.5540     1.9500    -0.0320 c3         1 8OK      -0.050100
     27 CAL          4.4300     3.4680    -0.0570 ca         1 8OK      -0.083300
     28 CAG          4.3670     4.1560    -1.2850 ca         1 8OK      -0.103500
     29 CAH          4.2450     5.5560    -1.3080 ca         1 8OK      -0.108000
     30 CAI          4.1850     6.2770    -0.1030 ca         1 8OK      -0.107000
     31 CAJ          4.2450     5.5960     1.1250 ca         1 8OK      -0.108000
     32 CAK          4.3670     4.1960     1.1480 ca         1 8OK      -0.103500
     33 H2          -6.0120     1.0990     1.9700 h1         1 8OK       0.048950
     34 H3          -7.3440     3.0720     1.3860 h1         1 8OK       0.052700
     35 H4          -6.7180     3.0820    -0.2790 h1         1 8OK       0.052700
     36 H5          -8.5740     0.0810    -1.2300 h1         1 8OK       0.052700
     37 H6          -7.4420     1.3190    -1.8200 h1         1 8OK       0.052700
     38 H7          -6.8550    -0.9500     0.1790 h1         1 8OK       0.048950
     39 H8          -6.1920    -0.7640    -1.4540 h1         1 8OK       0.048950
     40 H9          -3.0910     1.9780    -0.0430 ha         1 8OK       0.111000
     41 H10         -0.8050     1.1070    -0.0220 ha         1 8OK       0.131000
     42 H11         -4.6530    -2.0400     0.0570 ha         1 8OK       0.111000
     43 H12         -2.3860    -2.9420     0.0610 ha         1 8OK       0.131000
     44 H13          0.7680    -5.4530     0.0930 ha         1 8OK       0.131000
     45 H14          2.3000    -7.2900     0.2920 hn         1 8OK       0.461000
     46 H15          4.0240    -7.0660     0.2830 hn         1 8OK       0.461000
     47 H16          5.0360    -4.8920     0.0780 ha         1 8OK       0.113000
     48 H17          4.7370    -2.4480     0.0390 ha         1 8OK       0.101000
     49 H18          4.2650    -0.5830     0.0100 hn         1 8OK       0.490000
     50 H19          2.6130     1.5710    -0.9120 h1         1 8OK       0.060700
     51 H20          2.6150     1.6000     0.8630 h1         1 8OK       0.060700
     52 H21          5.1230     1.6350     0.8510 hc         1 8OK       0.050200
     53 H22          5.1210     1.6050    -0.9060 hc         1 8OK       0.050200
     54 H23          4.4110     3.6050    -2.2220 ha         1 8OK       0.111500
     55 H24          4.1970     6.0820    -2.2590 ha         1 8OK       0.113500
     56 H25          4.0900     7.3600    -0.1210 ha         1 8OK       0.113000
     57 H26          4.1980     6.1530     2.0580 ha         1 8OK       0.113500
     58 H27          4.4120     3.6760     2.1030 ha         1 8OK       0.111500
     59 H1          -4.9410     2.2940     1.2300 h1         1 8OK       0.048950
@<TRIPOS>BOND
     1     1     2 ar  
     2     1     5 ar  
     3     1    19 ar  
     4     2     3 ar  
     5     2    23 ar  
     6     3     4 ar  
     7     3    24 1   
     8     4    18 ar  
     9     5    18 ar  
    10     6     7 1   
    11     6    11 1   
    12     6    33 1   
    13     6    59 1   
    14     7     8 1   
    15     7    34 1   
    16     7    35 1   
    17     8     9 1   
    18     9    10 1   
    19     9    36 1   
    20     9    37 1   
    21    10    11 1   
    22    10    38 1   
    23    10    39 1   
    24    11    12 1   
    25    12    13 ar  
    26    12    15 ar  
    27    13    14 ar  
    28    13    40 1   
    29    14    17 ar  
    30    14    41 1   
    31    15    16 ar  
    32    15    42 1   
    33    16    17 ar  
    34    16    43 1   
    35    17    18 1   
    36    19    20 ar  
    37    19    44 1   
    38    20    21 1   
    39    20    22 ar  
    40    21    45 1   
    41    21    46 1   
    42    22    23 ar  
    43    22    47 1   
    44    23    48 1   
    45    24    25 1   
    46    24    49 1   
    47    25    26 1   
    48    25    50 1   
    49    25    51 1   
    50    26    27 1   
    51    26    52 1   
    52    26    53 1   
    53    27    28 ar  
    54    27    32 ar  
    55    28    29 ar  
    56    28    54 1   
    57    29    30 ar  
    58    29    55 1   
    59    30    31 ar  
    60    30    56 1   
    61    31    32 ar  
    62    31    57 1   
    63    32    58 1   
@<TRIPOS>SUBSTRUCTURE
     1 8OK         1 TEMP              0 ****  ****    0 ROOT
