@<TRIPOS>MOLECULE
8OL
   54    55     1     0     0
SMALL
bcc


@<TRIPOS>ATOM
      1 C10         -1.0360     0.8620    -0.2540 c          1 8OL       0.685100
      2 C13         -3.4040     1.0590    -0.6950 c6         1 8OL       0.029700
      3 C17         -2.6410     1.0820     1.6440 c6         1 8OL       0.090000
      4 C26         -4.0670    -3.2110    -0.3340 c3         1 8OL      -0.106100
      5 C28         -5.7690    -2.4160     1.3100 c3         1 8OL      -0.106100
      6 C01          6.3010    -0.8840    -0.4040 ca         1 8OL       0.127900
      7 C02          5.8380     0.3400    -0.8370 ca         1 8OL      -0.188000
      8 C03          4.6390     0.8000    -0.3260 ca         1 8OL       0.153900
      9 C04          3.8840     0.0970     0.6020 ca         1 8OL      -0.112300
     10 C05          4.3850    -1.1370     1.0110 ca         1 8OL      -0.132000
     11 C06          5.5780    -1.6200     0.5170 ca         1 8OL       0.084900
     12 C07          2.5670     0.6070     1.1030 c3         1 8OL      -0.072100
     13 C08          1.4070     0.2860     0.1360 c3         1 8OL       0.177500
     14 C09          0.1080     0.8010     0.7410 c3         1 8OL      -0.145400
     15 N11         -2.2940     0.9710     0.2410 n          1 8OL      -0.479800
     16 O12         -0.8310     0.8470    -1.4600 o          1 8OL      -0.587100
     17 C14         -4.5430     1.9570    -0.2240 c          1 8OL       0.714500
     18 N15         -4.4270     2.5610     0.9640 ns         1 8OL      -0.569900
     19 C16         -3.3220     2.4090     1.8840 c6         1 8OL       0.095000
     20 O18         -5.5120     2.1180    -0.9540 o          1 8OL      -0.641500
     21 N19          1.2550    -1.1230    -0.1730 n8         1 8OL      -0.876800
     22 F20          6.0460    -2.8060     0.9210 f          1 8OL      -0.119900
     23 F22          4.1930     1.9910    -0.7540 f          1 8OL      -0.130900
     24 C23         -3.9500    -0.3110    -1.0760 c3         1 8OL       0.137400
     25 O24         -4.5640    -0.8580     0.0580 os         1 8OL      -0.431600
     26 C25         -5.1390    -2.1590    -0.0540 c3         1 8OL       0.168800
     27 C27         -6.2190    -2.1950    -1.1360 c3         1 8OL      -0.106100
     28 H131        -3.0340     1.5230    -1.6120 h1         1 8OL       0.109700
     29 H171        -3.3020     0.2620     1.9270 h1         1 8OL       0.065200
     30 H172        -1.7600     1.0230     2.2730 h1         1 8OL       0.065200
     31 H1          -4.5030    -4.2100    -0.3030 hc         1 8OL       0.041811
     32 H2          -3.6130    -3.0910    -1.3190 hc         1 8OL       0.041811
     33 H3          -3.2740    -3.1680     0.4140 hc         1 8OL       0.041811
     34 H4          -5.0190    -2.3670     2.1020 hc         1 8OL       0.041811
     35 H5          -6.5460    -1.6810     1.5290 hc         1 8OL       0.041811
     36 H6          -6.2240    -3.4060     1.3380 hc         1 8OL       0.041811
     37 H021         6.4010     0.9220    -1.5550 ha         1 8OL       0.175000
     38 H051         3.8380    -1.7270     1.7360 ha         1 8OL       0.154000
     39 H072         2.3570     0.1520     2.0750 hc         1 8OL       0.058200
     40 H071         2.6140     1.6850     1.2680 hc         1 8OL       0.058200
     41 H7           1.5970     0.8090    -0.8050 h1         1 8OL       0.093700
     42 H091         0.2530     1.8060     1.1500 hc         1 8OL       0.057200
     43 H092        -0.1440     0.1640     1.5920 hc         1 8OL       0.057200
     44 H8          -5.1700     3.1940     1.2190 hn         1 8OL       0.319500
     45 H162        -3.7070     2.4460     2.9030 h1         1 8OL       0.044700
     46 H161        -2.6050     3.2270     1.7700 h1         1 8OL       0.044700
     47 H10          2.0730    -1.4700    -0.6590 hn         1 8OL       0.340800
     48 H9           1.1900    -1.6610     0.6850 hn         1 8OL       0.340800
     49 H232        -4.6500    -0.1910    -1.9090 h1         1 8OL       0.047700
     50 H231        -3.1160    -0.9230    -1.4370 h1         1 8OL       0.047700
     51 H12         -6.7640    -3.1380    -1.0910 hc         1 8OL       0.041811
     52 H13         -6.9370    -1.3850    -0.9950 hc         1 8OL       0.041811
     53 H14         -5.8050    -2.1120    -2.1420 hc         1 8OL       0.041811
     54 F21          7.4560    -1.3650    -0.8700 f          1 8OL      -0.115900
@<TRIPOS>BOND
     1     1    14 1   
     2     1    15 1   
     3     1    16 2   
     4     2    15 1   
     5     2    17 1   
     6     2    24 1   
     7     2    28 1   
     8     3    15 1   
     9     3    19 1   
    10     3    29 1   
    11     3    30 1   
    12     4    26 1   
    13     4    31 1   
    14     4    32 1   
    15     4    33 1   
    16     5    26 1   
    17     5    34 1   
    18     5    35 1   
    19     5    36 1   
    20     6     7 ar  
    21     6    11 ar  
    22     6    54 1   
    23     7     8 ar  
    24     7    37 1   
    25     8     9 ar  
    26     8    23 1   
    27     9    10 ar  
    28     9    12 1   
    29    10    11 ar  
    30    10    38 1   
    31    11    22 1   
    32    12    13 1   
    33    12    39 1   
    34    12    40 1   
    35    13    14 1   
    36    13    21 1   
    37    13    41 1   
    38    14    42 1   
    39    14    43 1   
    40    17    18 1   
    41    17    20 2   
    42    18    19 1   
    43    18    44 1   
    44    19    45 1   
    45    19    46 1   
    46    21    47 1   
    47    21    48 1   
    48    24    25 1   
    49    24    49 1   
    50    24    50 1   
    51    25    26 1   
    52    26    27 1   
    53    27    51 1   
    54    27    52 1   
    55    27    53 1   
@<TRIPOS>SUBSTRUCTURE
     1 8OL         1 TEMP              0 ****  ****    0 ROOT
