@<TRIPOS>MOLECULE
8OL
   54    55     1     0     0
SMALL
No Charge or Current Charge


@<TRIPOS>ATOM
      1 C10         -0.9620     0.7350    -0.2810 c          1 8OL       0.618100
      2 C13         -3.4450     1.0580    -0.7810 c6         1 8OL       0.029700
      3 C17         -2.6810     1.0390     1.6130 c6         1 8OL       0.090000
      4 C26         -4.3410    -3.2180    -0.4040 c3         1 8OL      -0.106100
      5 C28         -5.9590    -2.3960     1.3760 c3         1 8OL      -0.106100
      6 C01          6.6350    -0.6080    -0.3950 ca         1 8OL       0.163000
      7 C02          5.9570     0.5030    -0.9190 ca         1 8OL      -0.170000
      8 C03          4.6880     0.8420    -0.4250 ca         1 8OL       0.189000
      9 C04          4.0820     0.0740     0.5960 ca         1 8OL      -0.112300
     10 C05          4.7740    -1.0390     1.1200 ca         1 8OL      -0.114000
     11 C06          6.0450    -1.3780     0.6250 ca         1 8OL       0.120000
     12 C07          2.7000     0.4410     1.1430 c3         1 8OL      -0.072100
     13 C08          1.5400     0.1070     0.1710 c3         1 8OL       0.177500
     14 C09          0.1640     0.5100     0.7470 c3         1 8OL      -0.145400
     15 N11         -2.2930     0.9040     0.1790 n          1 8OL      -0.412800
     16 O12         -0.7260     0.7820    -1.4830 o          1 8OL      -0.587100
     17 C14         -4.5600     2.0550    -0.3580 c          1 8OL       0.572000
     18 N15         -4.4500     2.6620     0.8740 ns         1 8OL      -0.502900
     19 C16         -3.4180     2.3700     1.8800 c6         1 8OL       0.095000
     20 O18         -5.4920     2.3460    -1.0940 o          1 8OL      -0.566000
     21 N19          1.5520    -1.3340    -0.1470 n8         1 8OL      -0.987200
     22 F20          6.6960    -2.4490     1.1360 f          1 8OL      -0.155000
     23 F22          4.0520     1.9200    -0.9370 f          1 8OL      -0.166000
     24 C23         -4.1090    -0.3040    -1.1310 c3         1 8OL       0.160600
     25 O24         -4.7460    -0.8510     0.0500 os         1 8OL      -0.478000
     26 C25         -5.3940    -2.1420    -0.0390 c3         1 8OL       0.192000
     27 C27         -6.5420    -2.0680    -1.0780 c3         1 8OL      -0.106100
     28 H131        -3.0650     1.4800    -1.7210 h1         1 8OL       0.109700
     29 H171        -3.3430     0.2040     1.8820 h1         1 8OL       0.065200
     30 H172        -1.8190     0.9840     2.2880 h1         1 8OL       0.065200
     31 H1          -4.7620    -4.2230    -0.2820 hc         1 8OL       0.041811
     32 H2          -4.0130    -3.1250    -1.4460 hc         1 8OL       0.041811
     33 H3          -3.4610    -3.1380     0.2460 hc         1 8OL       0.041811
     34 H4          -5.1540    -2.4070     2.1200 hc         1 8OL       0.041811
     35 H5          -6.6740    -1.6130     1.6560 hc         1 8OL       0.041811
     36 H6          -6.4770    -3.3620     1.4200 hc         1 8OL       0.041811
     37 H021         6.4130     1.1000    -1.7040 ha         1 8OL       0.157000
     38 H051         4.3320    -1.6430     1.9090 ha         1 8OL       0.136000
     39 H072         2.5220    -0.0620     2.1020 hc         1 8OL       0.058200
     40 H071         2.6740     1.5150     1.3660 hc         1 8OL       0.058200
     41 H7           1.7150     0.6750    -0.7560 h1         1 8OL       0.093700
     42 H091         0.2380     1.4400     1.3230 hc         1 8OL       0.057200
     43 H092        -0.1760    -0.1960     1.5130 hc         1 8OL       0.057200
     44 H8          -5.1810     3.3240     1.1080 hn         1 8OL       0.319500
     45 H162        -3.8830     2.3460     2.8760 h1         1 8OL       0.044700
     46 H161        -2.6910     3.1930     1.8670 h1         1 8OL       0.044700
     47 H10          2.4950    -1.5880    -0.4610 hn         1 8OL       0.396000
     48 H9           1.4420    -1.8670     0.7230 hn         1 8OL       0.396000
     49 H232        -4.8360    -0.1410    -1.9360 h1         1 8OL       0.047700
     50 H231        -3.3260    -0.9740    -1.5090 h1         1 8OL       0.047700
     51 H12         -7.1640    -2.9690    -1.0250 hc         1 8OL       0.041811
     52 H13         -7.1850    -1.2000    -0.8870 hc         1 8OL       0.041811
     53 H14         -6.1560    -1.9960    -2.1010 hc         1 8OL       0.041811
     54 F21          7.8580    -0.9300    -0.8740 f          1 8OL      -0.151000
@<TRIPOS>BOND
     1     1    14 1   
     2     1    15 1   
     3     1    16 2   
     4     2    15 1   
     5     2    17 1   
     6     2    24 1   
     7     2    28 1   
     8     3    15 1   
     9     3    19 1   
    10     3    29 1   
    11     3    30 1   
    12     4    26 1   
    13     4    31 1   
    14     4    32 1   
    15     4    33 1   
    16     5    26 1   
    17     5    34 1   
    18     5    35 1   
    19     5    36 1   
    20     6     7 ar  
    21     6    11 ar  
    22     6    54 1   
    23     7     8 ar  
    24     7    37 1   
    25     8     9 ar  
    26     8    23 1   
    27     9    10 ar  
    28     9    12 1   
    29    10    11 ar  
    30    10    38 1   
    31    11    22 1   
    32    12    13 1   
    33    12    39 1   
    34    12    40 1   
    35    13    14 1   
    36    13    21 1   
    37    13    41 1   
    38    14    42 1   
    39    14    43 1   
    40    17    18 1   
    41    17    20 2   
    42    18    19 1   
    43    18    44 1   
    44    19    45 1   
    45    19    46 1   
    46    21    47 1   
    47    21    48 1   
    48    24    25 1   
    49    24    49 1   
    50    24    50 1   
    51    25    26 1   
    52    26    27 1   
    53    27    51 1   
    54    27    52 1   
    55    27    53 1   
@<TRIPOS>SUBSTRUCTURE
     1 8OL         1 TEMP              0 ****  ****    0 ROOT
