@<TRIPOS>MOLECULE
8OM
   61    64     1     0     0
SMALL
abcg2


@<TRIPOS>ATOM
      1 C12         -2.4670    -0.9040    -0.8110 ca         1 8OM      -0.114500
      2 C13         -3.8240    -1.1830    -0.8580 ca         1 8OM       0.000500
      3 C8           3.8480     0.4340     0.5950 c3         1 8OM       0.134900
      4 C7           0.4320    -0.9550     1.4600 ca         1 8OM      -0.100000
      5 C6           1.7900    -0.6830     1.5030 ca         1 8OM      -0.092000
      6 C4           1.5810     0.6740    -0.4590 ca         1 8OM      -0.092000
      7 C2          -0.3720    -0.4200     0.4540 cp         1 8OM      -0.002000
      8 C1          -5.7710     1.9390     0.6400 c          1 8OM       0.701000
      9 O2          -5.0410     2.7020    -0.0110 o          1 8OM      -0.714500
     10 O1          -5.8510     1.8400     1.8830 o          1 8OM      -0.714500
     11 C21         -6.7240     1.0190    -0.1660 c3         1 8OM       0.054500
     12 C22         -8.0450     1.7170    -0.5400 c3         1 8OM      -0.034700
     13 C17         -7.8190     2.9950    -1.3420 c3         1 8OM      -0.079600
     14 C9          -8.9510     0.7730    -1.3240 c3         1 8OM      -0.079600
     15 N18         -7.0310    -0.1660     0.6450 n7         1 8OM      -0.830300
     16 O19         -6.6010    -2.4860     1.3920 o          1 8OM      -0.571000
     17 O20         -6.6440    -1.9540    -1.0640 o          1 8OM      -0.571000
     18 C14         -4.5420    -1.2670     0.3250 ca         1 8OM      -0.276500
     19 C15         -3.9180    -1.0700     1.5510 ca         1 8OM       0.000500
     20 C16         -2.5640    -0.7960     1.5850 ca         1 8OM      -0.114500
     21 C11         -1.8170    -0.7090     0.4070 cp         1 8OM      -0.009000
     22 C5           2.3780     0.1410     0.5500 ca         1 8OM      -0.113300
     23 C3           0.2250     0.3980    -0.5080 ca         1 8OM      -0.100000
     24 S10          4.6550    -0.7420    -0.5410 ss         1 8OM      -0.262200
     25 C28          6.3180    -0.2020    -0.4720 cc         1 8OM       0.520800
     26 N31          6.6750     0.7840     0.2870 nd         1 8OM      -0.653300
     27 C34          7.9900     1.1070     0.2360 cd         1 8OM       0.187400
     28 C37          8.6050     2.1950     1.0610 c5         1 8OM      -0.037200
     29 C36          9.9850     2.3830     0.4060 c5         1 8OM      -0.082400
     30 C35         10.2900     1.0610    -0.3310 c5         1 8OM      -0.007200
     31 C33          8.9250     0.4810    -0.5260 cc         1 8OM      -0.285400
     32 C32          8.5460    -0.6210    -1.3510 c          1 8OM       0.580200
     33 N29          7.1760    -0.8870    -1.2620 ns         1 8OM      -0.400400
     34 O38          9.2630    -1.2960    -2.0730 o          1 8OM      -0.550000
     35 H1          -1.9090    -0.8630    -1.7370 ha         1 8OM       0.107500
     36 H2          -4.3050    -1.3440    -1.8120 ha         1 8OM       0.134000
     37 H3           4.0700     1.4450     0.2610 h1         1 8OM       0.085200
     38 H4           4.2550     0.2940     1.5950 h1         1 8OM       0.085200
     39 H5           0.0000    -1.6090     2.2080 ha         1 8OM       0.125500
     40 H6           2.3960    -1.1160     2.2900 ha         1 8OM       0.112000
     41 H7           2.0220     1.3200    -1.2090 ha         1 8OM       0.112000
     42 H9          -6.2330     0.7160    -1.0950 h1         1 8OM       0.050700
     43 H10         -8.5500     1.9830     0.3970 hc         1 8OM       0.049700
     44 H11         -7.2610     2.7870    -2.2580 hc         1 8OM       0.025867
     45 H12         -8.7790     3.4250    -1.6340 hc         1 8OM       0.025867
     46 H13         -7.2720     3.7520    -0.7850 hc         1 8OM       0.025867
     47 H14         -9.1660    -0.1420    -0.7760 hc         1 8OM       0.025867
     48 H15         -9.9010     1.2590    -1.5530 hc         1 8OM       0.025867
     49 H16         -8.4860     0.4930    -2.2730 hc         1 8OM       0.025867
     50 H17         -6.9190     0.0820     1.6300 hn         1 8OM       0.508000
     51 H18         -4.4740    -1.1280     2.4780 ha         1 8OM       0.134000
     52 H19         -2.0870    -0.6270     2.5420 ha         1 8OM       0.107500
     53 H20         -0.3770     0.8440    -1.2890 ha         1 8OM       0.125500
     54 H21          8.0010     3.1040     1.0690 hc         1 8OM       0.066200
     55 H22          9.9300     3.1960    -0.3200 hc         1 8OM       0.046700
     56 H23         10.8240     1.2240    -1.2680 hc         1 8OM       0.055700
     57 H24          8.6850     1.8590     2.0990 hc         1 8OM       0.066200
     58 H25         10.7570     2.6430     1.1290 hc         1 8OM       0.046700
     59 H26         10.9110     0.3940     0.2750 hc         1 8OM       0.055700
     60 H27          6.8300    -1.6530    -1.8280 hn         1 8OM       0.338500
     61 S17         -6.2880    -1.5790     0.2960 sy         1 8OM       1.137600
@<TRIPOS>BOND
     1     1     2 ar  
     2     1    21 ar  
     3     1    35 1   
     4     2    18 ar  
     5     2    36 1   
     6     3    22 1   
     7     3    24 1   
     8     3    37 1   
     9     3    38 1   
    10     4     5 ar  
    11     4     7 ar  
    12     4    39 1   
    13     5    22 ar  
    14     5    40 1   
    15     6    22 ar  
    16     6    23 ar  
    17     6    41 1   
    18     7    21 1   
    19     7    23 ar  
    20     8     9 1   
    21     8    10 1   
    22     8    11 1   
    23    11    12 1   
    24    11    15 1   
    25    11    42 1   
    26    12    13 1   
    27    12    14 1   
    28    12    43 1   
    29    13    44 1   
    30    13    45 1   
    31    13    46 1   
    32    14    47 1   
    33    14    48 1   
    34    14    49 1   
    35    15    50 1   
    36    15    61 1   
    37    16    61 2   
    38    17    61 2   
    39    18    19 ar  
    40    18    61 1   
    41    19    20 ar  
    42    19    51 1   
    43    20    21 ar  
    44    20    52 1   
    45    23    53 1   
    46    24    25 1   
    47    25    26 2   
    48    25    33 1   
    49    26    27 1   
    50    27    28 1   
    51    27    31 2   
    52    28    29 1   
    53    28    54 1   
    54    28    57 1   
    55    29    30 1   
    56    29    55 1   
    57    29    58 1   
    58    30    31 1   
    59    30    56 1   
    60    30    59 1   
    61    31    32 1   
    62    32    33 1   
    63    32    34 2   
    64    33    60 1   
@<TRIPOS>SUBSTRUCTURE
     1 8OM         1 TEMP              0 ****  ****    0 ROOT
