@<TRIPOS>MOLECULE
8OM
   61    64     1     0     0
SMALL
No Charge or Current Charge


@<TRIPOS>ATOM
      1 C12         -2.7600    -1.2480    -0.7530 ca         1 8OM      -0.114500
      2 C13         -4.1280    -1.5650    -0.6990 ca         1 8OM       0.000500
      3 C8           3.6690     0.4540     0.1750 c3         1 8OM       0.134900
      4 C7           0.2880    -0.8640     1.4180 ca         1 8OM      -0.100000
      5 C6           1.6560    -0.5470     1.3620 ca         1 8OM      -0.092000
      6 C4           1.3340     0.4450    -0.8300 ca         1 8OM      -0.092000
      7 C2          -0.5870    -0.5350     0.3530 cp         1 8OM      -0.002000
      8 C1          -7.2100     1.1600     1.8420 c          1 8OM       0.701000
      9 O2          -6.3350     1.4350     2.6530 o          1 8OM      -0.714500
     10 O1          -8.3980     1.0900     2.1340 o          1 8OM      -0.714500
     11 C21         -6.7880     0.8260     0.3580 c3         1 8OM       0.054500
     12 C22         -7.2960     1.9080    -0.6490 c3         1 8OM      -0.034700
     13 C17         -6.9240     3.3460    -0.2070 c3         1 8OM      -0.079600
     14 C9          -6.7850     1.6520    -2.0910 c3         1 8OM      -0.079600
     15 N18         -7.2460    -0.5350    -0.0940 n7         1 8OM      -0.830300
     16 O19         -7.0440    -1.9570     1.9680 o          1 8OM      -0.571000
     17 O20         -6.8470    -2.9730    -0.3800 o          1 8OM      -0.571000
     18 C14         -4.8140    -1.5180     0.5280 ca         1 8OM      -0.276500
     19 C15         -4.1260    -1.1480     1.6990 ca         1 8OM       0.000500
     20 C16         -2.7570    -0.8330     1.6380 ca         1 8OM      -0.114500
     21 C11         -2.0450    -0.8750     0.4130 cp         1 8OM      -0.009000
     22 C5           2.1870     0.1110     0.2380 ca         1 8OM      -0.113300
     23 C3          -0.0330     0.1250    -0.7730 ca         1 8OM      -0.100000
     24 S10          4.6210    -0.9360    -0.5930 ss         1 8OM      -0.262200
     25 C28          6.2850    -0.3640    -0.5800 cc         1 8OM       0.520800
     26 N31          6.4750     0.8460    -0.0580 nd         1 8OM      -0.653300
     27 C34          7.7980     1.2760    -0.0610 cd         1 8OM       0.187400
     28 C37          8.3390     2.5830     0.4610 c5         1 8OM      -0.037200
     29 C36          9.7630     2.7020    -0.1830 c5         1 8OM      -0.082400
     30 C35         10.1430     1.2120    -0.4400 c5         1 8OM      -0.007200
     31 C33          8.8200     0.5160    -0.5560 cc         1 8OM      -0.285400
     32 C32          8.5820    -0.8090    -1.1190 c          1 8OM       0.580200
     33 N29          7.2780    -1.1530    -1.0830 ns         1 8OM      -0.400400
     34 O38          9.4430    -1.5430    -1.5770 o          1 8OM      -0.550000
     35 H1          -2.2490    -1.3030    -1.7100 ha         1 8OM       0.107500
     36 H2          -4.6510    -1.8430    -1.6130 ha         1 8OM       0.134000
     37 H3           3.8160     1.3650    -0.4180 h1         1 8OM       0.085200
     38 H4           4.0520     0.6390     1.1870 h1         1 8OM       0.085200
     39 H5          -0.0930    -1.3850     2.2930 ha         1 8OM       0.125500
     40 H6           2.3050    -0.8180     2.1930 ha         1 8OM       0.112000
     41 H7           1.7300     0.9530    -1.7070 ha         1 8OM       0.112000
     42 H9          -5.6920     0.8800     0.3280 h1         1 8OM       0.050700
     43 H10         -8.3920     1.8540    -0.6760 hc         1 8OM       0.049700
     44 H11         -5.8380     3.4520    -0.1020 hc         1 8OM       0.025867
     45 H12         -7.2690     4.0790    -0.9460 hc         1 8OM       0.025867
     46 H13         -7.3910     3.6030     0.7510 hc         1 8OM       0.025867
     47 H14         -7.1420     0.6900    -2.4770 hc         1 8OM       0.025867
     48 H15         -7.1430     2.4320    -2.7730 hc         1 8OM       0.025867
     49 H16         -5.6890     1.6490    -2.1200 hc         1 8OM       0.025867
     50 H17         -8.2170    -0.6560     0.1900 hn         1 8OM       0.508000
     51 H18         -4.6440    -1.0930     2.6550 ha         1 8OM       0.134000
     52 H19         -2.2500    -0.5350     2.5520 ha         1 8OM       0.107500
     53 H20         -0.6720     0.4060    -1.6060 ha         1 8OM       0.125500
     54 H21          7.7040     3.4350     0.1950 hc         1 8OM       0.066200
     55 H22          9.7100     3.2520    -1.1290 hc         1 8OM       0.046700
     56 H23         10.7540     1.0970    -1.3430 hc         1 8OM       0.055700
     57 H24          8.4040     2.5650     1.5540 hc         1 8OM       0.066200
     58 H25         10.4820     3.2230     0.4600 hc         1 8OM       0.046700
     59 H26         10.7220     0.7990     0.3950 hc         1 8OM       0.055700
     60 H27          7.0420    -2.0580    -1.4580 hn         1 8OM       0.338500
     61 S17         -6.5710    -1.9040     0.5840 sy         1 8OM       1.137600
@<TRIPOS>BOND
     1     1     2 ar  
     2     1    21 ar  
     3     1    35 1   
     4     2    18 ar  
     5     2    36 1   
     6     3    22 1   
     7     3    24 1   
     8     3    37 1   
     9     3    38 1   
    10     4     5 ar  
    11     4     7 ar  
    12     4    39 1   
    13     5    22 ar  
    14     5    40 1   
    15     6    22 ar  
    16     6    23 ar  
    17     6    41 1   
    18     7    21 1   
    19     7    23 ar  
    20     8     9 1   
    21     8    10 1   
    22     8    11 1   
    23    11    12 1   
    24    11    15 1   
    25    11    42 1   
    26    12    13 1   
    27    12    14 1   
    28    12    43 1   
    29    13    44 1   
    30    13    45 1   
    31    13    46 1   
    32    14    47 1   
    33    14    48 1   
    34    14    49 1   
    35    15    50 1   
    36    15    61 1   
    37    16    61 2   
    38    17    61 2   
    39    18    19 ar  
    40    18    61 1   
    41    19    20 ar  
    42    19    51 1   
    43    20    21 ar  
    44    20    52 1   
    45    23    53 1   
    46    24    25 1   
    47    25    26 2   
    48    25    33 1   
    49    26    27 1   
    50    27    28 1   
    51    27    31 2   
    52    28    29 1   
    53    28    54 1   
    54    28    57 1   
    55    29    30 1   
    56    29    55 1   
    57    29    58 1   
    58    30    31 1   
    59    30    56 1   
    60    30    59 1   
    61    31    32 1   
    62    32    33 1   
    63    32    34 2   
    64    33    60 1   
@<TRIPOS>SUBSTRUCTURE
     1 8OM         1 TEMP              0 ****  ****    0 ROOT
