@<TRIPOS>MOLECULE
8ON
   65    69     1     0     0
SMALL
No Charge or Current Charge


@<TRIPOS>ATOM
      1 C4           2.5910    -3.3290     0.1020 ca         1 8ON       0.111000
      2 C5           3.6330    -2.3740     0.0980 ca         1 8ON      -0.229000
      3 C6           3.2560    -1.0140     0.0520 ca         1 8ON       0.423900
      4 N1           1.9670    -0.6450     0.0130 nb         1 8ON      -0.306000
      5 N3           1.3040    -2.9340     0.0620 nb         1 8ON      -0.237000
      6 CAM         -5.0380     0.9860     0.8760 c6         1 8ON       0.185800
      7 CAN         -6.2720     1.7760     0.3570 c6         1 8ON       0.090500
      8 NAE         -7.3270     0.8630    -0.1630 n          1 8ON      -0.416800
      9 CAY         -8.5520     0.6630     0.5140 c          1 8ON       0.610100
     10 OBI         -8.8090     1.2750     1.5430 o          1 8ON      -0.605100
     11 CAL         -9.5850    -0.2950    -0.0820 c3         1 8ON      -0.177100
     12 CAZ         -6.8030    -0.0320    -1.2340 c6         1 8ON       0.090500
     13 CBD         -5.5750    -0.8510    -0.7450 c6         1 8ON       0.185800
     14 NAD         -4.5170     0.0240    -0.1480 nh         1 8ON      -0.800400
     15 CAJ         -3.1660    -0.3910    -0.1060 ca         1 8ON       0.326000
     16 CBE         -2.1400     0.5670    -0.1130 ca         1 8ON      -0.192000
     17 CBA         -0.7900     0.1790    -0.0740 ca         1 8ON      -0.029000
     18 CBB         -2.8170    -1.7520    -0.0600 ca         1 8ON      -0.192000
     19 CBC         -1.4700    -2.1480    -0.0190 ca         1 8ON      -0.029000
     20 CAO         -0.4170    -1.1920    -0.0240 cp         1 8ON      -0.191500
     21 C2           1.0310    -1.6130     0.0190 cp         1 8ON       0.264500
     22 CAX          2.9110    -4.6970     0.1470 ca         1 8ON      -0.201000
     23 CBG          4.2450    -5.1160     0.1880 ca         1 8ON       0.335000
     24 NAC          4.5410    -6.4490     0.2330 nv         1 8ON      -1.086000
     25 CBH          5.2770    -4.1710     0.1840 ca         1 8ON      -0.190000
     26 CAK          4.9790    -2.8000     0.1390 ca         1 8ON      -0.028000
     27 NAF          4.1910     0.0180     0.0440 nu         1 8ON      -0.932100
     28 CAR          3.9180     1.4670    -0.0030 c3         1 8ON       0.233800
     29 CAG          5.2290     2.2750     0.0040 c3         1 8ON      -0.051100
     30 CAW          4.9720     3.7760    -0.0450 ca         1 8ON      -0.084300
     31 CAV          4.8790     4.4410    -1.2830 ca         1 8ON      -0.103500
     32 CAU          4.6340     5.8250    -1.3270 ca         1 8ON      -0.108000
     33 CAQ          4.4790     6.5510    -0.1340 ca         1 8ON      -0.107000
     34 CAT          4.5690     5.8920     1.1040 ca         1 8ON      -0.108000
     35 CBF          4.8140     4.5080     1.1480 ca         1 8ON      -0.103500
     36 H1          -4.2630     1.7070     1.1690 h1         1 8ON       0.048450
     37 H2          -5.3270     0.4360     1.7840 h1         1 8ON       0.048450
     38 H3          -6.6600     2.4140     1.1630 h1         1 8ON       0.061950
     39 H4          -5.9510     2.4450    -0.4540 h1         1 8ON       0.061950
     40 H5          -9.1640    -1.3050    -0.1030 hc         1 8ON       0.060367
     41 H6         -10.5340    -0.2800     0.4660 hc         1 8ON       0.060367
     42 H7          -9.7270    -0.0640    -1.1430 hc         1 8ON       0.060367
     43 H8          -7.5690    -0.7230    -1.6080 h1         1 8ON       0.061950
     44 H9          -6.4940     0.5880    -2.0880 h1         1 8ON       0.061950
     45 H10         -5.9140    -1.5880    -0.0010 h1         1 8ON       0.048450
     46 H11         -5.1700    -1.4100    -1.6010 h1         1 8ON       0.048450
     47 H12         -2.3880     1.6230    -0.1630 ha         1 8ON       0.111000
     48 H13         -0.0320     0.9590    -0.0840 ha         1 8ON       0.131500
     49 H14         -3.5880    -2.5150    -0.0430 ha         1 8ON       0.111000
     50 H15         -1.2490    -3.2130     0.0200 ha         1 8ON       0.131500
     51 H16          2.1130    -5.4330     0.1490 ha         1 8ON       0.131000
     52 H17          3.7970    -7.1240     0.4040 hn         1 8ON       0.460500
     53 H18          5.4950    -6.7470     0.4280 hn         1 8ON       0.460500
     54 H19          6.3130    -4.4950     0.2150 ha         1 8ON       0.113000
     55 H20          5.8000    -2.0880     0.1370 ha         1 8ON       0.100000
     56 H21          5.1650    -0.2720     0.0730 hn         1 8ON       0.493000
     57 H22          3.3500     1.7150    -0.9110 h1         1 8ON       0.061200
     58 H23          3.3090     1.7650     0.8620 h1         1 8ON       0.061200
     59 H24          5.8040     2.0220     0.9030 hc         1 8ON       0.050200
     60 H25          5.8440     1.9720    -0.8530 hc         1 8ON       0.050200
     61 H26          4.9950     3.8870    -2.2120 ha         1 8ON       0.111500
     62 H27          4.5630     6.3340    -2.2860 ha         1 8ON       0.114000
     63 H28          4.2890     7.6220    -0.1690 ha         1 8ON       0.113000
     64 H29          4.4490     6.4530     2.0280 ha         1 8ON       0.114000
     65 H30          4.8800     4.0060     2.1110 ha         1 8ON       0.111500
@<TRIPOS>BOND
     1     1     2 ar  
     2     1     5 ar  
     3     1    22 ar  
     4     2     3 ar  
     5     2    26 ar  
     6     3     4 ar  
     7     3    27 1   
     8     4    21 ar  
     9     5    21 ar  
    10     6     7 1   
    11     6    14 1   
    12     6    36 1   
    13     6    37 1   
    14     7     8 1   
    15     7    38 1   
    16     7    39 1   
    17     8     9 1   
    18     8    12 1   
    19     9    10 2   
    20     9    11 1   
    21    11    40 1   
    22    11    41 1   
    23    11    42 1   
    24    12    13 1   
    25    12    43 1   
    26    12    44 1   
    27    13    14 1   
    28    13    45 1   
    29    13    46 1   
    30    14    15 1   
    31    15    16 ar  
    32    15    18 ar  
    33    16    17 ar  
    34    16    47 1   
    35    17    20 ar  
    36    17    48 1   
    37    18    19 ar  
    38    18    49 1   
    39    19    20 ar  
    40    19    50 1   
    41    20    21 1   
    42    22    23 ar  
    43    22    51 1   
    44    23    24 1   
    45    23    25 ar  
    46    24    52 1   
    47    24    53 1   
    48    25    26 ar  
    49    25    54 1   
    50    26    55 1   
    51    27    28 1   
    52    27    56 1   
    53    28    29 1   
    54    28    57 1   
    55    28    58 1   
    56    29    30 1   
    57    29    59 1   
    58    29    60 1   
    59    30    31 ar  
    60    30    35 ar  
    61    31    32 ar  
    62    31    61 1   
    63    32    33 ar  
    64    32    62 1   
    65    33    34 ar  
    66    33    63 1   
    67    34    35 ar  
    68    34    64 1   
    69    35    65 1   
@<TRIPOS>SUBSTRUCTURE
     1 8ON         1 TEMP              0 ****  ****    0 ROOT
