@<TRIPOS>MOLECULE
8ON
   65    69     1     0     0
SMALL
bcc


@<TRIPOS>ATOM
      1 C4           2.6060    -3.3260    -0.0180 ca         1 8ON       0.504600
      2 C5           3.6590    -2.3850     0.0030 ca         1 8ON      -0.359600
      3 C6           3.2630    -1.0070    -0.0110 ca         1 8ON       0.752200
      4 N1           1.9870    -0.6690    -0.0440 nb         1 8ON      -0.832000
      5 N3           1.3040    -2.9370    -0.0490 nb         1 8ON      -0.763000
      6 CAM         -4.7770     1.2830     0.3790 c6         1 8ON       0.185800
      7 CAN         -6.0410     1.8550    -0.2380 c6         1 8ON       0.090500
      8 NAE         -7.0920     0.8590    -0.2530 n          1 8ON      -0.483800
      9 CAY         -8.2700     1.0560     0.3800 c          1 8ON       0.677100
     10 OBI         -8.5190     2.0960     0.9760 o          1 8ON      -0.605100
     11 CAL         -9.2840    -0.0640     0.3250 c3         1 8ON      -0.177100
     12 CAZ         -6.6920    -0.3470    -0.9440 c6         1 8ON       0.090500
     13 CBD         -5.4250    -0.9310    -0.3400 c6         1 8ON       0.185800
     14 NAD         -4.3690     0.0600    -0.2970 nh         1 8ON      -0.662000
     15 CAJ         -3.0540    -0.3620    -0.1920 ca         1 8ON       0.187600
     16 CBE         -1.9930     0.5600    -0.2190 ca         1 8ON      -0.210000
     17 CBA         -0.6790     0.1440    -0.1700 ca         1 8ON      -0.047000
     18 CBB         -2.7100    -1.7210    -0.0940 ca         1 8ON      -0.210000
     19 CBC         -1.3880    -2.1260    -0.0580 ca         1 8ON      -0.047000
     20 CAO         -0.3400    -1.2090    -0.0950 cp         1 8ON      -0.191500
     21 C2           1.0670    -1.6490    -0.0590 cp         1 8ON       0.790500
     22 CAX          2.9020    -4.6970    -0.0030 ca         1 8ON      -0.284300
     23 CBG          4.2130    -5.1460     0.0280 ca         1 8ON       0.196600
     24 NAC          4.5150    -6.4780    -0.0090 nv         1 8ON      -0.837200
     25 CBH          5.2620    -4.1910     0.0520 ca         1 8ON      -0.208000
     26 CAK          4.9840    -2.8520     0.0420 ca         1 8ON      -0.046000
     27 NAF          4.1660    -0.0190     0.0130 nu         1 8ON      -0.876900
     28 CAR          3.8100     1.3830    -0.0220 c3         1 8ON       0.233800
     29 CAG          5.0530     2.2410     0.1950 c3         1 8ON      -0.051100
     30 CAW          4.7070     3.7020     0.1530 ca         1 8ON      -0.084300
     31 CAV          4.7070     4.4000    -1.0530 ca         1 8ON      -0.121500
     32 CAU          4.3460     5.7400    -1.0990 ca         1 8ON      -0.126000
     33 CAQ          3.9780     6.4030     0.0650 ca         1 8ON      -0.125000
     34 CAT          3.9740     5.7180     1.2730 ca         1 8ON      -0.126000
     35 CBF          4.3350     4.3780     1.3130 ca         1 8ON      -0.121500
     36 H1          -3.9990     2.0380     0.3050 h1         1 8ON       0.048450
     37 H2          -4.9470     1.0940     1.4480 h1         1 8ON       0.048450
     38 H3          -6.3620     2.7240     0.3300 h1         1 8ON       0.061950
     39 H4          -5.8360     2.1780    -1.2630 h1         1 8ON       0.061950
     40 H5          -8.9200    -0.9600     0.8310 hc         1 8ON       0.060367
     41 H6         -10.1940     0.2600     0.8230 hc         1 8ON       0.060367
     42 H7          -9.5320    -0.3460    -0.6990 hc         1 8ON       0.060367
     43 H8          -7.4720    -1.1010    -0.9080 h1         1 8ON       0.061950
     44 H9          -6.5130    -0.1130    -1.9980 h1         1 8ON       0.061950
     45 H10         -5.6440    -1.3370     0.6590 h1         1 8ON       0.048450
     46 H11         -5.1250    -1.7640    -0.9750 h1         1 8ON       0.048450
     47 H12         -2.1860     1.6210    -0.3060 ha         1 8ON       0.129000
     48 H13          0.1070     0.8870    -0.2030 ha         1 8ON       0.149500
     49 H14         -3.4720    -2.4850    -0.0330 ha         1 8ON       0.129000
     50 H15         -1.1690    -3.1830     0.0160 ha         1 8ON       0.149500
     51 H16          2.0800    -5.4020    -0.0180 ha         1 8ON       0.149000
     52 H17          3.7870    -7.1220     0.2510 hn         1 8ON       0.405300
     53 H18          5.4250    -6.7550     0.3210 hn         1 8ON       0.405300
     54 H19          6.2910    -4.5290     0.0810 ha         1 8ON       0.131000
     55 H20          5.8190    -2.1620     0.0660 ha         1 8ON       0.118000
     56 H21          5.1440    -0.2480    -0.0190 hn         1 8ON       0.437800
     57 H22          3.3450     1.6400    -0.9790 h1         1 8ON       0.061200
     58 H23          3.0720     1.5940     0.7550 h1         1 8ON       0.061200
     59 H24          5.5010     1.9880     1.1590 hc         1 8ON       0.050200
     60 H25          5.7930     2.0120    -0.5770 hc         1 8ON       0.050200
     61 H26          4.9970     3.8920    -1.9650 ha         1 8ON       0.129500
     62 H27          4.3540     6.2680    -2.0440 ha         1 8ON       0.132000
     63 H28          3.7000     7.4490     0.0300 ha         1 8ON       0.131000
     64 H29          3.6930     6.2270     2.1850 ha         1 8ON       0.132000
     65 H30          4.3350     3.8500     2.2600 ha         1 8ON       0.129500
@<TRIPOS>BOND
     1     1     2 ar  
     2     1     5 ar  
     3     1    22 ar  
     4     2     3 ar  
     5     2    26 ar  
     6     3     4 ar  
     7     3    27 1   
     8     4    21 ar  
     9     5    21 ar  
    10     6     7 1   
    11     6    14 1   
    12     6    36 1   
    13     6    37 1   
    14     7     8 1   
    15     7    38 1   
    16     7    39 1   
    17     8     9 1   
    18     8    12 1   
    19     9    10 2   
    20     9    11 1   
    21    11    40 1   
    22    11    41 1   
    23    11    42 1   
    24    12    13 1   
    25    12    43 1   
    26    12    44 1   
    27    13    14 1   
    28    13    45 1   
    29    13    46 1   
    30    14    15 1   
    31    15    16 ar  
    32    15    18 ar  
    33    16    17 ar  
    34    16    47 1   
    35    17    20 ar  
    36    17    48 1   
    37    18    19 ar  
    38    18    49 1   
    39    19    20 ar  
    40    19    50 1   
    41    20    21 1   
    42    22    23 ar  
    43    22    51 1   
    44    23    24 1   
    45    23    25 ar  
    46    24    52 1   
    47    24    53 1   
    48    25    26 ar  
    49    25    54 1   
    50    26    55 1   
    51    27    28 1   
    52    27    56 1   
    53    28    29 1   
    54    28    57 1   
    55    28    58 1   
    56    29    30 1   
    57    29    59 1   
    58    29    60 1   
    59    30    31 ar  
    60    30    35 ar  
    61    31    32 ar  
    62    31    61 1   
    63    32    33 ar  
    64    32    62 1   
    65    33    34 ar  
    66    33    63 1   
    67    34    35 ar  
    68    34    64 1   
    69    35    65 1   
@<TRIPOS>SUBSTRUCTURE
     1 8ON         1 TEMP              0 ****  ****    0 ROOT
