@<TRIPOS>MOLECULE
8OQ
   21    21     1     0     0
SMALL
No Charge or Current Charge


@<TRIPOS>ATOM
      1 O32         -2.1680     0.1690     1.2060 o          1 8OQ      -0.703000
      2 C31         -1.8590     0.3390     0.0330 c          1 8OQ       0.717000
      3 O6          -2.6900     0.6960    -0.7960 o          1 8OQ      -0.703000
      4 C3          -0.4660    -0.1670    -0.5280 c5         1 8OQ       0.006000
      5 O3          -0.6300    -0.8330    -1.8230 oh         1 8OQ      -0.765000
      6 C4           0.2980    -1.0340     0.5370 c5         1 8OQ       0.183300
      7 C5          -0.1630    -2.5010     0.6930 c3         1 8OQ      -0.077100
      8 O4           1.6770    -1.0040     0.0910 os         1 8OQ      -0.507000
      9 C1           1.8990     0.2220    -0.6270 c5         1 8OQ       0.345300
     10 O1           2.9330     0.9370     0.0340 oh         1 8OQ      -0.742000
     11 C2           0.5420     1.0270    -0.6010 c5         1 8OQ       0.148300
     12 H2          -1.5040    -0.5140    -2.1680 ho         1 8OQ       0.541000
     13 H3           0.2550    -0.5600     1.5280 h1         1 8OQ       0.076700
     14 H4          -0.0520    -3.0600    -0.2440 hc         1 8OQ       0.031700
     15 H5           0.4260    -3.0150     1.4610 hc         1 8OQ       0.031700
     16 H6          -1.2160    -2.5530     0.9930 hc         1 8OQ       0.031700
     17 H7           2.1890    -0.0120    -1.6610 h2         1 8OQ       0.033700
     18 H8           3.6380     0.2660     0.1780 ho         1 8OQ       0.498000
     19 H9           0.4070     1.6210    -1.5160 h1         1 8OQ       0.040700
     20 O2           0.5160     1.8760     0.5570 oh         1 8OQ      -0.678000
     21 H10          1.4720     1.8950     0.8170 ho         1 8OQ       0.492000
@<TRIPOS>BOND
     1     1     2 1   
     2     2     3 1   
     3     2     4 1   
     4     4     5 1   
     5     4     6 1   
     6     4    11 1   
     7     5    12 1   
     8     6     7 1   
     9     6     8 1   
    10     6    13 1   
    11     7    14 1   
    12     7    15 1   
    13     7    16 1   
    14     8     9 1   
    15     9    10 1   
    16     9    11 1   
    17     9    17 1   
    18    10    18 1   
    19    11    19 1   
    20    11    20 1   
    21    20    21 1   
@<TRIPOS>SUBSTRUCTURE
     1 8OQ         1 TEMP              0 ****  ****    0 ROOT
