@<TRIPOS>MOLECULE
8OQ
   21    21     1     0     0
SMALL
abcg2


@<TRIPOS>ATOM
      1 O32         -2.0590     0.6080     1.2110 o          1 8OQ      -0.703000
      2 C31         -1.8530     0.3180     0.0270 c          1 8OQ       0.717000
      3 O6          -2.6780     0.3380    -0.9170 o          1 8OQ      -0.703000
      4 C3          -0.4400    -0.1500    -0.4000 c5         1 8OQ       0.006000
      5 O3          -0.5330    -0.7540    -1.6660 oh         1 8OQ      -0.765000
      6 C4           0.2410    -1.0910     0.5960 c5         1 8OQ       0.183300
      7 C5          -0.2260    -2.5270     0.5550 c3         1 8OQ      -0.077100
      8 O4           1.6310    -1.0220     0.2630 os         1 8OQ      -0.507000
      9 C1           1.9070     0.1340    -0.4960 c5         1 8OQ       0.345300
     10 O1           2.9350     0.8760     0.0700 oh         1 8OQ      -0.742000
     11 C2           0.6120     0.9630    -0.4990 c5         1 8OQ       0.148300
     12 H2          -1.4430    -0.5170    -1.9340 ho         1 8OQ       0.541000
     13 H3           0.0890    -0.6960     1.6060 h1         1 8OQ       0.076700
     14 H4          -0.0840    -2.9730    -0.4280 hc         1 8OQ       0.031700
     15 H5           0.3130    -3.1300     1.2870 hc         1 8OQ       0.031700
     16 H6          -1.2850    -2.5860     0.8080 hc         1 8OQ       0.031700
     17 H7           2.1710    -0.1690    -1.5160 h2         1 8OQ       0.033700
     18 H8           3.7830     0.5530    -0.2490 ho         1 8OQ       0.498000
     19 H9           0.5090     1.5200    -1.4400 h1         1 8OQ       0.040700
     20 O2           0.5390     1.8110     0.6130 oh         1 8OQ      -0.678000
     21 H10          1.3740     2.2890     0.6720 ho         1 8OQ       0.492000
@<TRIPOS>BOND
     1     1     2 1   
     2     2     3 1   
     3     2     4 1   
     4     4     5 1   
     5     4     6 1   
     6     4    11 1   
     7     5    12 1   
     8     6     7 1   
     9     6     8 1   
    10     6    13 1   
    11     7    14 1   
    12     7    15 1   
    13     7    16 1   
    14     8     9 1   
    15     9    10 1   
    16     9    11 1   
    17     9    17 1   
    18    10    18 1   
    19    11    19 1   
    20    11    20 1   
    21    20    21 1   
@<TRIPOS>SUBSTRUCTURE
     1 8OQ         1 TEMP              0 ****  ****    0 ROOT
