@<TRIPOS>MOLECULE
8OR
   54    57     1     0     0
SMALL
No Charge or Current Charge


@<TRIPOS>ATOM
      1 C4          -2.7370     2.0260    -0.0210 ca         1 8OR       0.294800
      2 C5          -1.3950     2.4050    -0.1130 ca         1 8OR      -0.396600
      3 C6          -0.4450     1.3810    -0.0260 ca         1 8OR       0.475900
      4 N1          -0.8010     0.1040     0.1670 nb         1 8OR      -0.345000
      5 N3          -3.1090     0.7510     0.1570 nb         1 8OR      -0.285000
      6 CAA          6.7760    -0.9820    -1.7420 c3         1 8OR      -0.338100
      7 OAD          5.8620    -2.7730    -0.0600 o          1 8OR      -0.529000
      8 OAE          7.0330    -0.6850     0.8500 o          1 8OR      -0.529000
      9 CAV          4.5520    -0.4490    -0.1030 ca         1 8OR      -0.312500
     10 CAI          3.3800    -1.0930    -0.5440 ca         1 8OR       0.012000
     11 CAG          2.1570    -0.4000    -0.5450 ca         1 8OR      -0.176000
     12 CAH          4.4940     0.8930     0.3220 ca         1 8OR       0.012000
     13 CAF          3.2650     1.5750     0.3150 ca         1 8OR      -0.176000
     14 CAU          2.0900     0.9330    -0.1030 ca         1 8OR       0.374000
     15 NAR          0.9050     1.6690    -0.1010 nu         1 8OR      -0.937900
     16 CAY         -1.0640     3.8520    -0.2860 c          1 8OR       0.599600
     17 OAC          0.0820     4.2740    -0.3430 o          1 8OR      -0.604000
     18 NAT         -2.1330     4.7130    -0.3680 ns         1 8OR      -0.373100
     19 CAO         -3.4730     4.3640    -0.2900 cc         1 8OR      -0.020400
     20 CAJ         -3.7820     3.0360    -0.1150 cd         1 8OR      -0.384800
     21 C2          -2.1120    -0.1440     0.2420 ca         1 8OR       0.457900
     22 NAS         -2.4360    -1.4750     0.4360 nu         1 8OR      -0.910100
     23 CBC         -3.7940    -2.0640     0.3100 c6         1 8OR       0.238500
     24 CAN         -4.1420    -2.2600    -1.1900 c6         1 8OR      -0.093400
     25 CAL         -5.5340    -2.9190    -1.3630 c6         1 8OR      -0.071400
     26 CAK         -5.6170    -4.2660    -0.6010 c6         1 8OR      -0.076400
     27 CAM         -5.2690    -4.0900     0.8990 c6         1 8OR      -0.075400
     28 CBB         -3.8750    -3.4350     1.0760 c6         1 8OR       0.156500
     29 NAB         -3.5500    -3.2840     2.5170 n8         1 8OR      -0.996200
     30 H1           6.8890     0.1030    -1.8410 h1         1 8OR       0.100700
     31 H2           7.7450    -1.4830    -1.8380 h1         1 8OR       0.100700
     32 H3           6.0660    -1.3660    -2.4810 h1         1 8OR       0.100700
     33 H4           3.4090    -2.1250    -0.8920 ha         1 8OR       0.134500
     34 H5           1.2720    -0.9060    -0.9120 ha         1 8OR       0.139000
     35 H6           5.3920     1.4120     0.6560 ha         1 8OR       0.134500
     36 H7           3.2300     2.6090     0.6460 ha         1 8OR       0.139000
     37 H8           1.0460     2.6840    -0.1190 hn         1 8OR       0.550000
     38 H9          -1.8780     5.6870    -0.4880 hn         1 8OR       0.334500
     39 H10         -4.1680     5.1980    -0.3740 h4         1 8OR       0.204000
     40 H11         -4.8240     2.7340    -0.0480 ha         1 8OR       0.219000
     41 H12         -1.6360    -2.1040     0.4230 hn         1 8OR       0.498000
     42 H13         -4.5470    -1.3970     0.7600 h1         1 8OR       0.105700
     43 H14         -4.1300    -1.2930    -1.7100 hc         1 8OR       0.046700
     44 H15         -3.3780    -2.8840    -1.6730 hc         1 8OR       0.046700
     45 H16         -6.3140    -2.2380    -0.9960 hc         1 8OR       0.045200
     46 H17         -5.7390    -3.0820    -2.4300 hc         1 8OR       0.045200
     47 H18         -6.6270    -4.6880    -0.7020 hc         1 8OR       0.042200
     48 H19         -4.9300    -4.9920    -1.0580 hc         1 8OR       0.042200
     49 H20         -6.0370    -3.4730     1.3850 hc         1 8OR       0.051200
     50 H21         -5.2920    -5.0690     1.3980 hc         1 8OR       0.051200
     51 H22         -3.1110    -4.1050     0.6530 h1         1 8OR       0.012700
     52 H23         -3.0550    -4.1260     2.8330 hn         1 8OR       0.399500
     53 H24         -2.8390    -2.5460     2.5870 hn         1 8OR       0.399500
     54 SBD          6.1260    -1.3290    -0.1090 sy         1 8OR       1.069500
@<TRIPOS>BOND
     1     1     2 ar  
     2     1     5 ar  
     3     1    20 1   
     4     2     3 ar  
     5     2    16 1   
     6     3     4 ar  
     7     3    15 1   
     8     4    21 ar  
     9     5    21 ar  
    10     6    30 1   
    11     6    31 1   
    12     6    32 1   
    13     6    54 1   
    14     7    54 2   
    15     8    54 2   
    16     9    10 ar  
    17     9    12 ar  
    18     9    54 1   
    19    10    11 ar  
    20    10    33 1   
    21    11    14 ar  
    22    11    34 1   
    23    12    13 ar  
    24    12    35 1   
    25    13    14 ar  
    26    13    36 1   
    27    14    15 1   
    28    15    37 1   
    29    16    17 2   
    30    16    18 1   
    31    18    19 1   
    32    18    38 1   
    33    19    20 2   
    34    19    39 1   
    35    20    40 1   
    36    21    22 1   
    37    22    23 1   
    38    22    41 1   
    39    23    24 1   
    40    23    28 1   
    41    23    42 1   
    42    24    25 1   
    43    24    43 1   
    44    24    44 1   
    45    25    26 1   
    46    25    45 1   
    47    25    46 1   
    48    26    27 1   
    49    26    47 1   
    50    26    48 1   
    51    27    28 1   
    52    27    49 1   
    53    27    50 1   
    54    28    29 1   
    55    28    51 1   
    56    29    52 1   
    57    29    53 1   
@<TRIPOS>SUBSTRUCTURE
     1 8OR         1 TEMP              0 ****  ****    0 ROOT
