@<TRIPOS>MOLECULE
8OR
   54    57     1     0     0
SMALL
abcg2


@<TRIPOS>ATOM
      1 C4          -2.7340     1.9680     0.0520 ca         1 8OR       0.294800
      2 C5          -1.4000     2.4130     0.0270 ca         1 8OR      -0.396600
      3 C6          -0.4070     1.3830    -0.0140 ca         1 8OR       0.475900
      4 N1          -0.7430     0.1140    -0.0290 nb         1 8OR      -0.345000
      5 N3          -3.0610     0.6750     0.0340 nb         1 8OR      -0.285000
      6 CAA          6.4010    -1.4300    -1.7920 c3         1 8OR      -0.338100
      7 OAD          5.9330    -2.4070     0.6050 o          1 8OR      -0.529000
      8 OAE          7.1010    -0.1870     0.4170 o          1 8OR      -0.529000
      9 CAV          4.5250    -0.2940    -0.0560 ca         1 8OR      -0.312500
     10 CAI          3.3510    -1.0340    -0.0360 ca         1 8OR       0.012000
     11 CAG          2.1210    -0.4000    -0.0340 ca         1 8OR      -0.176000
     12 CAH          4.4770     1.0950    -0.0670 ca         1 8OR       0.012000
     13 CAF          3.2540     1.7290    -0.0610 ca         1 8OR      -0.176000
     14 CAU          2.0570     0.9990    -0.0450 ca         1 8OR       0.374000
     15 NAR          0.8960     1.7490    -0.0350 nu         1 8OR      -0.937900
     16 CAY         -1.0770     3.8170     0.0440 c          1 8OR       0.599600
     17 OAC          0.0650     4.2900     0.0220 o          1 8OR      -0.604000
     18 NAT         -2.1590     4.6590     0.0890 ns         1 8OR      -0.373100
     19 CAO         -3.4520     4.2470     0.1140 cc         1 8OR      -0.020400
     20 CAJ         -3.7800     2.9400     0.0960 cd         1 8OR      -0.384800
     21 C2          -2.0550    -0.1920    -0.0010 ca         1 8OR       0.457900
     22 NAS         -2.3350    -1.5010     0.0000 nu         1 8OR      -0.910100
     23 CBC         -3.6640    -2.0760    -0.0390 c6         1 8OR       0.238500
     24 CAN         -4.0600    -2.4630    -1.4630 c6         1 8OR      -0.093400
     25 CAL         -5.4520    -3.0820    -1.5070 c6         1 8OR      -0.071400
     26 CAK         -5.5520    -4.2700    -0.5570 c6         1 8OR      -0.076400
     27 CAM         -5.1460    -3.8730     0.8560 c6         1 8OR      -0.075400
     28 CBB         -3.7440    -3.2740     0.9080 c6         1 8OR       0.156500
     29 NAB         -3.4450    -2.8490     2.2670 n8         1 8OR      -0.996200
     30 H1           6.4380    -0.4850    -2.3290 h1         1 8OR       0.100700
     31 H2           7.3620    -1.9380    -1.8620 h1         1 8OR       0.100700
     32 H3           5.6140    -2.0640    -2.1960 h1         1 8OR       0.100700
     33 H4           3.3790    -2.1150    -0.0190 ha         1 8OR       0.134500
     34 H5           1.2210    -0.9900    -0.0170 ha         1 8OR       0.139000
     35 H6           5.3810     1.6880    -0.0740 ha         1 8OR       0.134500
     36 H7           3.2240     2.8120    -0.0650 ha         1 8OR       0.139000
     37 H8           1.0140     2.7640    -0.0280 hn         1 8OR       0.550000
     38 H9          -1.9650     5.6510     0.1020 hn         1 8OR       0.334500
     39 H10         -4.1900     5.0350     0.1480 h4         1 8OR       0.204000
     40 H11         -4.8120     2.6260     0.1170 ha         1 8OR       0.219000
     41 H12         -1.5460    -2.1200    -0.1170 hn         1 8OR       0.498000
     42 H13         -4.3530    -1.3130     0.3280 h1         1 8OR       0.105700
     43 H14         -4.0120    -1.5780    -2.1020 hc         1 8OR       0.046700
     44 H15         -3.3300    -3.1780    -1.8600 hc         1 8OR       0.046700
     45 H16         -6.1960    -2.3270    -1.2300 hc         1 8OR       0.045200
     46 H17         -5.6900    -3.3880    -2.5280 hc         1 8OR       0.045200
     47 H18         -6.5680    -4.6720    -0.5540 hc         1 8OR       0.042200
     48 H19         -4.9020    -5.0760    -0.9130 hc         1 8OR       0.042200
     49 H20         -5.8520    -3.1350     1.2520 hc         1 8OR       0.051200
     50 H21         -5.1930    -4.7390     1.5230 hc         1 8OR       0.051200
     51 H22         -3.0390    -4.0390     0.5380 h1         1 8OR       0.012700
     52 H23         -3.4960    -3.6500     2.8840 hn         1 8OR       0.399500
     53 H24         -2.4890    -2.5210     2.3220 hn         1 8OR       0.399500
     54 SBD          6.0850    -1.1190    -0.0700 sy         1 8OR       1.069500
@<TRIPOS>BOND
     1     1     2 ar  
     2     1     5 ar  
     3     1    20 1   
     4     2     3 ar  
     5     2    16 1   
     6     3     4 ar  
     7     3    15 1   
     8     4    21 ar  
     9     5    21 ar  
    10     6    30 1   
    11     6    31 1   
    12     6    32 1   
    13     6    54 1   
    14     7    54 2   
    15     8    54 2   
    16     9    10 ar  
    17     9    12 ar  
    18     9    54 1   
    19    10    11 ar  
    20    10    33 1   
    21    11    14 ar  
    22    11    34 1   
    23    12    13 ar  
    24    12    35 1   
    25    13    14 ar  
    26    13    36 1   
    27    14    15 1   
    28    15    37 1   
    29    16    17 2   
    30    16    18 1   
    31    18    19 1   
    32    18    38 1   
    33    19    20 2   
    34    19    39 1   
    35    20    40 1   
    36    21    22 1   
    37    22    23 1   
    38    22    41 1   
    39    23    24 1   
    40    23    28 1   
    41    23    42 1   
    42    24    25 1   
    43    24    43 1   
    44    24    44 1   
    45    25    26 1   
    46    25    45 1   
    47    25    46 1   
    48    26    27 1   
    49    26    47 1   
    50    26    48 1   
    51    27    28 1   
    52    27    49 1   
    53    27    50 1   
    54    28    29 1   
    55    28    51 1   
    56    29    52 1   
    57    29    53 1   
@<TRIPOS>SUBSTRUCTURE
     1 8OR         1 TEMP              0 ****  ****    0 ROOT
