@<TRIPOS>MOLECULE
8OT
   43    46     1     0     0
SMALL
bcc


@<TRIPOS>ATOM
      1 C4           0.5860     0.8620     0.0430 ca         1 8OT       0.751200
      2 C5           1.8020     1.6190     0.0070 ca         1 8OT      -0.358600
      3 C6           2.9950     0.8650    -0.0180 ca         1 8OT       0.503600
      4 N1           2.9750    -0.4950    -0.0190 nb         1 8OT      -0.758000
      5 N3           0.6080    -0.4590     0.0350 nb         1 8OT      -0.829000
      6 CAQ          0.5520    -3.2390    -0.0010 ca         1 8OT      -0.084000
      7 CAR          0.5240    -4.6260    -0.0210 ca         1 8OT      -0.148500
      8 CAS          1.7090    -5.3490    -0.0530 ca         1 8OT      -0.113000
      9 CAT          2.9250    -4.6750    -0.0660 ca         1 8OT      -0.148500
     10 CAU          2.9540    -3.2900    -0.0480 ca         1 8OT      -0.084000
     11 CAM          1.7680    -2.5550    -0.0150 cp         1 8OT      -0.150500
     12 C2           1.8020    -1.0720     0.0010 cp         1 8OT       0.779500
     13 CAG          4.2330     1.5210    -0.0430 ca         1 8OT      -0.285300
     14 CAF          4.3080     2.9060    -0.0550 ca         1 8OT       0.201600
     15 NAC          5.5020     3.5600    -0.1340 nv         1 8OT      -0.842200
     16 CAE          3.1020     3.6540    -0.0330 ca         1 8OT      -0.208000
     17 CAJ          1.8890     3.0230    -0.0030 ca         1 8OT      -0.046000
     18 NAD         -0.6100     1.4610     0.0830 nu         1 8OT      -0.876900
     19 CAN         -1.8580     0.7340     0.1580 c3         1 8OT       0.233800
     20 CAO         -3.0270     1.7160     0.1730 c3         1 8OT      -0.024100
     21 CAP         -4.3380     1.0100     0.2840 cc         1 8OT      -0.067400
     22 SAY         -5.0380     0.1990    -1.0690 ss         1 8OT      -0.093800
     23 CAX         -6.3750    -0.3450    -0.1430 cc         1 8OT      -0.108100
     24 CAW         -6.2870     0.0770     1.1470 cd         1 8OT      -0.150000
     25 CAV         -5.1190     0.8520     1.3900 cd         1 8OT      -0.144000
     26 H2          -0.4270    -5.1440    -0.0110 ha         1 8OT       0.129500
     27 H3           1.6870    -6.4310    -0.0680 ha         1 8OT       0.127000
     28 H4           3.8520    -5.2330    -0.0910 ha         1 8OT       0.129500
     29 H5           3.9010    -2.7670    -0.0590 ha         1 8OT       0.151500
     30 H6           5.1350     0.9200    -0.0570 ha         1 8OT       0.150000
     31 H7           6.3330     3.0490     0.1170 hn         1 8OT       0.409300
     32 H8           5.5240     4.5270     0.1420 hn         1 8OT       0.409300
     33 H9           3.1470     4.7360    -0.0430 ha         1 8OT       0.131000
     34 H10          1.0000     3.6400     0.0110 ha         1 8OT       0.119000
     35 H11         -0.6520     2.4650     0.1360 hn         1 8OT       0.438800
     36 H12         -1.9470     0.0560    -0.6940 h1         1 8OT       0.062700
     37 H13         -1.8870     0.1150     1.0590 h1         1 8OT       0.062700
     38 H14         -2.9280     2.3910     1.0260 hc         1 8OT       0.054200
     39 H15         -2.9970     2.3360    -0.7270 hc         1 8OT       0.054200
     40 H16         -7.1510    -0.9390    -0.6000 h4         1 8OT       0.169000
     41 H17         -7.0270    -0.1520     1.9010 ha         1 8OT       0.153000
     42 H18         -4.8660     1.2790     2.3510 ha         1 8OT       0.151000
     43 H1          -0.3710    -2.6770     0.0240 ha         1 8OT       0.151500
@<TRIPOS>BOND
     1     1     2 ar  
     2     1     5 ar  
     3     1    18 1   
     4     2     3 ar  
     5     2    17 ar  
     6     3     4 ar  
     7     3    13 ar  
     8     4    12 ar  
     9     5    12 ar  
    10     6     7 ar  
    11     6    11 ar  
    12     6    43 1   
    13     7     8 ar  
    14     7    26 1   
    15     8     9 ar  
    16     8    27 1   
    17     9    10 ar  
    18     9    28 1   
    19    10    11 ar  
    20    10    29 1   
    21    11    12 1   
    22    13    14 ar  
    23    13    30 1   
    24    14    15 1   
    25    14    16 ar  
    26    15    31 1   
    27    15    32 1   
    28    16    17 ar  
    29    16    33 1   
    30    17    34 1   
    31    18    19 1   
    32    18    35 1   
    33    19    20 1   
    34    19    36 1   
    35    19    37 1   
    36    20    21 1   
    37    20    38 1   
    38    20    39 1   
    39    21    22 1   
    40    21    25 2   
    41    22    23 1   
    42    23    24 2   
    43    23    40 1   
    44    24    25 1   
    45    24    41 1   
    46    25    42 1   
@<TRIPOS>SUBSTRUCTURE
     1 8OT         1 TEMP              0 ****  ****    0 ROOT
