@<TRIPOS>MOLECULE
8OT
   43    46     1     0     0
SMALL
No Charge or Current Charge


@<TRIPOS>ATOM
      1 C4           0.6390     0.8200     0.0670 ca         1 8OT       0.422900
      2 C5           1.8300     1.5750     0.0240 ca         1 8OT      -0.228000
      3 C6           3.0450     0.8550    -0.0360 ca         1 8OT       0.110000
      4 N1           3.0390    -0.4920    -0.0490 nb         1 8OT      -0.232000
      5 N3           0.6580    -0.5210     0.0530 nb         1 8OT      -0.303000
      6 CAQ          0.6630    -3.4030     0.0230 ca         1 8OT      -0.066000
      7 CAR          0.6790    -4.8080     0.0080 ca         1 8OT      -0.130500
      8 CAS          1.8980    -5.5000    -0.0510 ca         1 8OT      -0.095000
      9 CAT          3.1020    -4.7830    -0.0960 ca         1 8OT      -0.130500
     10 CAU          3.0910    -3.3770    -0.0800 ca         1 8OT      -0.066000
     11 CAM          1.8690    -2.6470    -0.0210 cp         1 8OT      -0.150500
     12 C2           1.8540    -1.1370    -0.0040 cp         1 8OT       0.253500
     13 CAG          4.2610     1.5580    -0.0810 ca         1 8OT      -0.202000
     14 CAF          4.2770     2.9570    -0.0680 ca         1 8OT       0.340000
     15 NAC          5.4670     3.6270    -0.1110 nv         1 8OT      -1.091000
     16 CAE          3.0750     3.6710    -0.0100 ca         1 8OT      -0.190000
     17 CAJ          1.8490     2.9880     0.0360 ca         1 8OT      -0.028000
     18 NAD         -0.6190     1.4160     0.1270 nu         1 8OT      -0.932100
     19 CAN         -1.9260     0.7320     0.1890 c3         1 8OT       0.233800
     20 CAO         -3.0850     1.7500     0.2390 c3         1 8OT      -0.024100
     21 CAP         -4.4390     1.0900     0.3020 cc         1 8OT      -0.212300
     22 SAY         -5.1670     0.3500    -1.1240 ss         1 8OT       0.196000
     23 CAX         -6.5890    -0.1170    -0.1970 cc         1 8OT      -0.235000
     24 CAW         -6.4790     0.2870     1.1090 cd         1 8OT      -0.132000
     25 CAV         -5.2660     0.9690     1.3910 cd         1 8OT      -0.126000
     26 H2          -0.2570    -5.3610     0.0420 ha         1 8OT       0.111500
     27 H3           1.9090    -6.5880    -0.0630 ha         1 8OT       0.109000
     28 H4           4.0490    -5.3160    -0.1420 ha         1 8OT       0.111500
     29 H5           4.0450    -2.8560    -0.1160 ha         1 8OT       0.133500
     30 H6           5.1960     1.0080    -0.1270 ha         1 8OT       0.132000
     31 H7           6.3370     3.1130     0.0200 hn         1 8OT       0.464500
     32 H8           5.4870     4.6290     0.0680 hn         1 8OT       0.464500
     33 H9           3.0850     4.7570    -0.0010 ha         1 8OT       0.113000
     34 H10          0.9310     3.5680     0.0810 ha         1 8OT       0.101000
     35 H11         -0.6230     2.4330     0.1420 hn         1 8OT       0.494000
     36 H12         -2.0550     0.0860    -0.6910 h1         1 8OT       0.062700
     37 H13         -1.9760     0.0930     1.0820 h1         1 8OT       0.062700
     38 H14         -2.9520     2.4020     1.1100 hc         1 8OT       0.054200
     39 H15         -3.0350     2.3950    -0.6470 hc         1 8OT       0.054200
     40 H16         -7.3950    -0.6510    -0.6850 h4         1 8OT       0.151000
     41 H17         -7.2460     0.1020     1.8560 ha         1 8OT       0.135000
     42 H18         -5.0170     1.3560     2.3750 ha         1 8OT       0.133000
     43 H1          -0.3010    -2.9020     0.0700 ha         1 8OT       0.133500
@<TRIPOS>BOND
     1     1     2 ar  
     2     1     5 ar  
     3     1    18 1   
     4     2     3 ar  
     5     2    17 ar  
     6     3     4 ar  
     7     3    13 ar  
     8     4    12 ar  
     9     5    12 ar  
    10     6     7 ar  
    11     6    11 ar  
    12     6    43 1   
    13     7     8 ar  
    14     7    26 1   
    15     8     9 ar  
    16     8    27 1   
    17     9    10 ar  
    18     9    28 1   
    19    10    11 ar  
    20    10    29 1   
    21    11    12 1   
    22    13    14 ar  
    23    13    30 1   
    24    14    15 1   
    25    14    16 ar  
    26    15    31 1   
    27    15    32 1   
    28    16    17 ar  
    29    16    33 1   
    30    17    34 1   
    31    18    19 1   
    32    18    35 1   
    33    19    20 1   
    34    19    36 1   
    35    19    37 1   
    36    20    21 1   
    37    20    38 1   
    38    20    39 1   
    39    21    22 1   
    40    21    25 2   
    41    22    23 1   
    42    23    24 2   
    43    23    40 1   
    44    24    25 1   
    45    24    41 1   
    46    25    42 1   
@<TRIPOS>SUBSTRUCTURE
     1 8OT         1 TEMP              0 ****  ****    0 ROOT
