@<TRIPOS>MOLECULE
8OV
   70    73     1     0     0
SMALL
No Charge or Current Charge


@<TRIPOS>ATOM
      1 N1          -0.0420    -2.2650     0.0960 nb         1 8OV      -0.267000
      2 N3           1.6810    -0.6220    -0.1330 nb         1 8OV      -0.326000
      3 C4           2.6060    -1.5910    -0.1220 ca         1 8OV       0.476900
      4 C5           2.2630    -2.9430     0.0190 ca         1 8OV      -0.450300
      5 C6           0.8890    -3.2320     0.1190 ca         1 8OV       0.224900
      6 C7           3.2990    -4.0640     0.0420 c3         1 8OV       0.382300
      7 C13          4.0200     0.9660    -1.3640 ca         1 8OV      -0.127000
      8 C15          6.0230     2.3320    -1.1460 ca         1 8OV      -0.145000
      9 C17          5.8830     0.1840    -0.0240 ca         1 8OV      -0.212000
     10 C20         10.1750     2.1450     0.9240 c3         1 8OV      -0.159400
     11 C21         10.3020     3.0880     2.1410 c3         1 8OV      -0.078100
     12 C24         -1.9030     0.1670     0.0500 ca         1 8OV       0.242000
     13 C26         -3.9270     1.4930    -0.3690 ca         1 8OV      -0.217000
     14 C28         -4.0920    -0.6120     0.8180 ca         1 8OV      -0.183000
     15 C2           0.4080    -1.0070    -0.0170 ca         1 8OV       0.444900
     16 F8           2.7470    -5.2840     0.2350 f          1 8OV      -0.119000
     17 F9           3.9860    -4.1300    -1.1200 f          1 8OV      -0.119000
     18 F10          4.2040    -3.8900     1.0310 f          1 8OV      -0.119000
     19 N11          3.9320    -1.2010    -0.2040 nu         1 8OV      -0.937900
     20 C12          4.5880    -0.0110    -0.5270 ca         1 8OV       0.323000
     21 C14          4.7330     2.1360    -1.6680 ca         1 8OV      -0.073000
     22 C16          6.6130     1.3510    -0.3210 ca         1 8OV       0.004000
     23 N18          7.9130     1.4710     0.2420 ns         1 8OV      -0.152000
     24 C19          8.9060     2.4330     0.1090 c          1 8OV       0.607100
     25 O22          8.8230     3.4200    -0.6130 o          1 8OV      -0.574100
     26 N23         -0.5040     0.0350    -0.0720 nu         1 8OV      -0.904900
     27 C25         -2.5290     1.3270    -0.4800 ca         1 8OV       0.132100
     28 C27         -4.7140     0.5250     0.2730 ca         1 8OV       0.309000
     29 C29         -2.7020    -0.7900     0.7110 ca         1 8OV      -0.055000
     30 N30         -6.1100     0.7160     0.3730 nh         1 8OV      -0.784400
     31 C31         -6.8890     0.1550     1.5210 c6         1 8OV       0.174300
     32 C32         -8.2050     0.9440     1.7710 c6         1 8OV       0.093500
     33 N33         -9.0160     1.0630     0.5280 n          1 8OV      -0.417800
     34 C34         -8.2410     1.6920    -0.5790 c6         1 8OV       0.093500
     35 C35         -6.9250     0.9150    -0.8670 c6         1 8OV       0.174300
     36 C36        -10.2320     0.3640     0.3530 c          1 8OV       0.609100
     37 O37        -10.6900    -0.3370     1.2460 o          1 8OV      -0.603100
     38 C38        -11.0080     0.5340    -0.9550 c3         1 8OV      -0.177100
     39 O39         -1.7310     2.2790    -1.1020 os         1 8OV      -0.354100
     40 C40         -2.2690     3.4840    -1.6760 c3         1 8OV       0.151900
     41 H1           0.5150    -4.2510     0.2170 h4         1 8OV       0.034100
     42 H2           3.0360     0.8200    -1.7960 ha         1 8OV       0.135000
     43 H3           6.5440     3.2510    -1.3980 ha         1 8OV       0.150000
     44 H4           6.3280    -0.5760     0.6130 ha         1 8OV       0.110000
     45 H5          11.0500     2.2970     0.2800 hc         1 8OV       0.057700
     46 H6          10.1630     1.1120     1.2910 hc         1 8OV       0.057700
     47 H7           9.4450     2.9700     2.8160 hc         1 8OV       0.044700
     48 H8          11.2160     2.8650     2.7060 hc         1 8OV       0.044700
     49 H9          10.3470     4.1360     1.8200 hc         1 8OV       0.044700
     50 H10         -4.4170     2.3760    -0.7620 ha         1 8OV       0.121000
     51 H11         -4.6820    -1.3710     1.3220 ha         1 8OV       0.121000
     52 H12          4.5620    -1.9310     0.1130 hn         1 8OV       0.509000
     53 H13          4.2880     2.8900    -2.3140 ha         1 8OV       0.116000
     54 H14          8.1580     0.7110     0.8630 hn         1 8OV       0.148000
     55 H15         -0.0630     0.9010    -0.3830 hn         1 8OV       0.526000
     56 H16         -2.2550    -1.6690     1.1620 ha         1 8OV       0.142000
     57 H17         -7.1390    -0.8980     1.3230 h1         1 8OV       0.047700
     58 H18         -6.2880     0.1840     2.4420 h1         1 8OV       0.047700
     59 H19         -8.7750     0.4560     2.5740 h1         1 8OV       0.062200
     60 H20         -7.9520     1.9530     2.1260 h1         1 8OV       0.062200
     61 H21         -8.8250     1.7640    -1.5050 h1         1 8OV       0.062200
     62 H22         -7.9850     2.7210    -0.2880 h1         1 8OV       0.062200
     63 H23         -6.3550     1.4670    -1.6280 h1         1 8OV       0.047700
     64 H24         -7.1800    -0.0630    -1.3000 h1         1 8OV       0.047700
     65 H25        -10.3990     0.1530    -1.7820 hc         1 8OV       0.060700
     66 H26        -11.9850     0.0390    -0.9290 hc         1 8OV       0.060700
     67 H27        -11.1010     1.6010    -1.1880 hc         1 8OV       0.060700
     68 H28         -1.4650     4.0880    -2.1140 h1         1 8OV       0.042700
     69 H29         -2.9890     3.2510    -2.4700 h1         1 8OV       0.042700
     70 H30         -2.7700     4.0910    -0.9110 h1         1 8OV       0.042700
@<TRIPOS>BOND
     1     1     5 ar  
     2     1    15 ar  
     3     2     3 ar  
     4     2    15 ar  
     5     3     4 ar  
     6     3    19 1   
     7     4     5 ar  
     8     4     6 1   
     9     5    41 1   
    10     6    16 1   
    11     6    17 1   
    12     6    18 1   
    13     7    20 ar  
    14     7    21 ar  
    15     7    42 1   
    16     8    21 ar  
    17     8    22 ar  
    18     8    43 1   
    19     9    20 ar  
    20     9    22 ar  
    21     9    44 1   
    22    10    11 1   
    23    10    24 1   
    24    10    45 1   
    25    10    46 1   
    26    11    47 1   
    27    11    48 1   
    28    11    49 1   
    29    12    26 1   
    30    12    27 ar  
    31    12    29 ar  
    32    13    27 ar  
    33    13    28 ar  
    34    13    50 1   
    35    14    28 ar  
    36    14    29 ar  
    37    14    51 1   
    38    15    26 1   
    39    19    20 1   
    40    19    52 1   
    41    21    53 1   
    42    22    23 1   
    43    23    24 1   
    44    23    54 1   
    45    24    25 2   
    46    26    55 1   
    47    27    39 1   
    48    28    30 1   
    49    29    56 1   
    50    30    31 1   
    51    30    35 1   
    52    31    32 1   
    53    31    57 1   
    54    31    58 1   
    55    32    33 1   
    56    32    59 1   
    57    32    60 1   
    58    33    34 1   
    59    33    36 1   
    60    34    35 1   
    61    34    61 1   
    62    34    62 1   
    63    35    63 1   
    64    35    64 1   
    65    36    37 2   
    66    36    38 1   
    67    38    65 1   
    68    38    66 1   
    69    38    67 1   
    70    39    40 1   
    71    40    68 1   
    72    40    69 1   
    73    40    70 1   
@<TRIPOS>SUBSTRUCTURE
     1 8OV         1 TEMP              0 ****  ****    0 ROOT
