@<TRIPOS>MOLECULE
8OV
   70    73     1     0     0
SMALL
abcg2


@<TRIPOS>ATOM
      1 N1          -0.1320    -2.1500     0.0450 nb         1 8OV      -0.267000
      2 N3           1.7220    -0.7010    -0.2720 nb         1 8OV      -0.326000
      3 C4           2.5580    -1.7190    -0.3080 ca         1 8OV       0.476900
      4 C5           2.0740    -3.0480    -0.1710 ca         1 8OV      -0.450300
      5 C6           0.7090    -3.1700     0.0060 ca         1 8OV       0.224900
      6 C7           2.9470    -4.2450    -0.2540 c3         1 8OV       0.382300
      7 C13          3.9250     0.7600    -1.5370 ca         1 8OV      -0.127000
      8 C15          5.7810     2.2460    -1.0390 ca         1 8OV      -0.145000
      9 C17          5.6470     0.0790    -0.0000 ca         1 8OV      -0.212000
     10 C20          9.5770     2.2680     1.4500 c3         1 8OV      -0.159400
     11 C21         10.2670     3.5530     1.8720 c3         1 8OV      -0.078100
     12 C24         -1.7460     0.2570     0.0680 ca         1 8OV       0.242000
     13 C26         -3.7560     1.5240    -0.4160 ca         1 8OV      -0.217000
     14 C28         -3.8820    -0.4110     0.9910 ca         1 8OV      -0.183000
     15 C2           0.4210    -0.9470    -0.1050 ca         1 8OV       0.444900
     16 F8           2.2690    -5.3810    -0.0800 f          1 8OV      -0.119000
     17 F9           3.5730    -4.3410    -1.4400 f          1 8OV      -0.119000
     18 F10          3.9260    -4.2340     0.6740 f          1 8OV      -0.119000
     19 N11          3.8770    -1.4530    -0.4760 nu         1 8OV      -0.937900
     20 C12          4.4580    -0.1880    -0.6660 ca         1 8OV       0.323000
     21 C14          4.5940     1.9600    -1.7000 ca         1 8OV      -0.073000
     22 C16          6.3220     1.2880    -0.1810 ca         1 8OV       0.004000
     23 N18          7.5050     1.4520     0.5430 ns         1 8OV      -0.152000
     24 C19          8.3700     2.5020     0.5660 c          1 8OV       0.607100
     25 O22          8.2110     3.5250    -0.0730 o          1 8OV      -0.574100
     26 N23         -0.3590     0.1540    -0.0920 nu         1 8OV      -0.904900
     27 C25         -2.3960     1.3280    -0.5760 ca         1 8OV       0.132100
     28 C27         -4.5300     0.6490     0.3610 ca         1 8OV       0.309000
     29 C29         -2.5090    -0.5840     0.8590 ca         1 8OV      -0.055000
     30 N30         -5.8980     0.8970     0.5090 nh         1 8OV      -0.784400
     31 C31         -6.6190     0.1050     1.4850 c6         1 8OV       0.174300
     32 C32         -7.9650     0.7410     1.7940 c6         1 8OV       0.093500
     33 N33         -8.7300     0.9360     0.5800 n          1 8OV      -0.417800
     34 C34         -8.0140     1.7220    -0.4040 c6         1 8OV       0.093500
     35 C35         -6.6700     1.0850    -0.7120 c6         1 8OV       0.174300
     36 C36         -9.9410     0.3630     0.4010 c          1 8OV       0.609100
     37 O37        -10.4700    -0.3200     1.2700 o          1 8OV      -0.603100
     38 C38        -10.6310     0.6040    -0.9210 c3         1 8OV      -0.177100
     39 O39         -1.6000     2.1320    -1.3080 os         1 8OV      -0.354100
     40 C40         -2.1580     3.2800    -1.9170 c3         1 8OV       0.151900
     41 H1           0.2590    -4.1490     0.1190 h4         1 8OV       0.034100
     42 H2           3.0120     0.5680    -2.0790 ha         1 8OV       0.135000
     43 H3           6.2650     3.1940    -1.1960 ha         1 8OV       0.150000
     44 H4           6.0560    -0.6640     0.6760 ha         1 8OV       0.110000
     45 H5          10.2730     1.6350     0.8900 hc         1 8OV       0.057700
     46 H6           9.2850     1.6840     2.3260 hc         1 8OV       0.057700
     47 H7           9.6010     4.1940     2.4490 hc         1 8OV       0.044700
     48 H8          11.1320     3.3240     2.4930 hc         1 8OV       0.044700
     49 H9          10.6190     4.1200     1.0120 hc         1 8OV       0.044700
     50 H10         -4.2310     2.3800    -0.8760 ha         1 8OV       0.121000
     51 H11         -4.4270    -1.1230     1.5940 ha         1 8OV       0.121000
     52 H12          4.5350    -2.1820    -0.2540 hn         1 8OV       0.509000
     53 H13          4.1830     2.7010    -2.3740 ha         1 8OV       0.116000
     54 H14          7.7530     0.6700     1.1300 hn         1 8OV       0.148000
     55 H15          0.1380     1.0100    -0.2860 hn         1 8OV       0.526000
     56 H16         -2.0380    -1.4100     1.3700 ha         1 8OV       0.142000
     57 H17         -6.7750    -0.9290     1.1440 h1         1 8OV       0.047700
     58 H18         -6.0480     0.0640     2.4140 h1         1 8OV       0.047700
     59 H19         -8.5200     0.1080     2.4810 h1         1 8OV       0.062200
     60 H20         -7.8070     1.7100     2.2770 h1         1 8OV       0.062200
     61 H21         -8.5830     1.8150    -1.3240 h1         1 8OV       0.062200
     62 H22         -7.8570     2.7320    -0.0110 h1         1 8OV       0.062200
     63 H23         -6.1370     1.7360    -1.4030 h1         1 8OV       0.047700
     64 H24         -6.8320     0.1240    -1.2240 h1         1 8OV       0.047700
     65 H25        -10.0540     0.2040    -1.7560 hc         1 8OV       0.060700
     66 H26        -11.6000     0.1130    -0.9090 hc         1 8OV       0.060700
     67 H27        -10.7860     1.6670    -1.1120 hc         1 8OV       0.060700
     68 H28         -1.3410     3.7880    -2.4220 h1         1 8OV       0.042700
     69 H29         -2.9210     3.0200    -2.6540 h1         1 8OV       0.042700
     70 H30         -2.5930     3.9590    -1.1790 h1         1 8OV       0.042700
@<TRIPOS>BOND
     1     1     5 ar  
     2     1    15 ar  
     3     2     3 ar  
     4     2    15 ar  
     5     3     4 ar  
     6     3    19 1   
     7     4     5 ar  
     8     4     6 1   
     9     5    41 1   
    10     6    16 1   
    11     6    17 1   
    12     6    18 1   
    13     7    20 ar  
    14     7    21 ar  
    15     7    42 1   
    16     8    21 ar  
    17     8    22 ar  
    18     8    43 1   
    19     9    20 ar  
    20     9    22 ar  
    21     9    44 1   
    22    10    11 1   
    23    10    24 1   
    24    10    45 1   
    25    10    46 1   
    26    11    47 1   
    27    11    48 1   
    28    11    49 1   
    29    12    26 1   
    30    12    27 ar  
    31    12    29 ar  
    32    13    27 ar  
    33    13    28 ar  
    34    13    50 1   
    35    14    28 ar  
    36    14    29 ar  
    37    14    51 1   
    38    15    26 1   
    39    19    20 1   
    40    19    52 1   
    41    21    53 1   
    42    22    23 1   
    43    23    24 1   
    44    23    54 1   
    45    24    25 2   
    46    26    55 1   
    47    27    39 1   
    48    28    30 1   
    49    29    56 1   
    50    30    31 1   
    51    30    35 1   
    52    31    32 1   
    53    31    57 1   
    54    31    58 1   
    55    32    33 1   
    56    32    59 1   
    57    32    60 1   
    58    33    34 1   
    59    33    36 1   
    60    34    35 1   
    61    34    61 1   
    62    34    62 1   
    63    35    63 1   
    64    35    64 1   
    65    36    37 2   
    66    36    38 1   
    67    38    65 1   
    68    38    66 1   
    69    38    67 1   
    70    39    40 1   
    71    40    68 1   
    72    40    69 1   
    73    40    70 1   
@<TRIPOS>SUBSTRUCTURE
     1 8OV         1 TEMP              0 ****  ****    0 ROOT
