@<TRIPOS>MOLECULE
8OW
   43    46     1     0     0
SMALL
abcg2


@<TRIPOS>ATOM
      1 C4          -0.1860     0.4100    -0.0210 ca         1 8OW       0.421900
      2 C5          -0.7790     1.7140    -0.0290 ca         1 8OW      -0.227000
      3 C6          -2.1910     1.7470    -0.0380 ca         1 8OW       0.110000
      4 N1          -2.9280     0.6040    -0.0330 nb         1 8OW      -0.232000
      5 N3          -0.9380    -0.6770    -0.0160 nb         1 8OW      -0.308000
      6 CAU          3.9740    -0.8730    -1.1880 ca         1 8OW      -0.067500
      7 CAV          5.3510    -0.7020    -1.1910 ca         1 8OW      -0.156000
      8 CAW          6.0000    -0.5760     0.0220 ca         1 8OW       0.181000
      9 FAZ          7.3320    -0.4110     0.0310 f          1 8OW      -0.176000
     10 CAX          5.3240    -0.6180     1.2260 ca         1 8OW      -0.156000
     11 CAY          3.9480    -0.7910     1.2060 ca         1 8OW      -0.067500
     12 CAT          3.2580    -0.9210     0.0040 ca         1 8OW      -0.139300
     13 CAN          1.7630    -1.0710    -0.0050 c3         1 8OW       0.285100
     14 NAL          1.1410     0.2400    -0.0210 nu         1 8OW      -0.931100
     15 CAF         -0.0740     2.9320    -0.0250 ca         1 8OW      -0.028000
     16 CAA         -0.7340     4.1290    -0.0360 ca         1 8OW      -0.189000
     17 CAB         -2.1530     4.1750    -0.0530 ca         1 8OW       0.340000
     18 NAM         -2.7860     5.3810    -0.1180 nv         1 8OW      -1.090000
     19 CAC         -2.8580     2.9800    -0.0500 ca         1 8OW      -0.203000
     20 C2          -2.2710    -0.5260    -0.0200 cp         1 8OW       0.253500
     21 CAK         -3.0650    -1.7790    -0.0080 cp         1 8OW      -0.150500
     22 CAO         -4.4600    -1.7370    -0.0040 ca         1 8OW      -0.066000
     23 CAP         -5.2000    -2.9080     0.0080 ca         1 8OW      -0.130500
     24 CAQ         -4.5600    -4.1420     0.0160 ca         1 8OW      -0.095000
     25 CAR         -3.1730    -4.1940     0.0120 ca         1 8OW      -0.130500
     26 CAS         -2.4300    -3.0220     0.0000 ca         1 8OW      -0.066000
     27 H1           3.4530    -0.9790    -2.1320 ha         1 8OW       0.123000
     28 H2           5.9070    -0.6680    -2.1190 ha         1 8OW       0.135500
     29 H3           5.8600    -0.5190     2.1610 ha         1 8OW       0.135500
     30 H4           3.4060    -0.8300     2.1430 ha         1 8OW       0.123000
     31 H5           1.4440    -1.6440    -0.8790 h1         1 8OW       0.063700
     32 H6           1.4310    -1.6280     0.8740 h1         1 8OW       0.063700
     33 H7           1.7460     1.0430    -0.0230 hn         1 8OW       0.501000
     34 H8           1.0080     2.9520    -0.0120 ha         1 8OW       0.103000
     35 H9          -0.1720     5.0550    -0.0350 ha         1 8OW       0.113000
     36 H10         -3.7640     5.4060     0.1160 hn         1 8OW       0.464500
     37 H11         -2.2770     6.1930     0.1860 hn         1 8OW       0.464500
     38 H12         -3.9410     2.9810    -0.0550 ha         1 8OW       0.132000
     39 H13         -4.9630    -0.7800    -0.0100 ha         1 8OW       0.132500
     40 H14         -6.2820    -2.8590     0.0120 ha         1 8OW       0.111500
     41 H15         -5.1410    -5.0550     0.0260 ha         1 8OW       0.110000
     42 H16         -2.6650    -5.1500     0.0180 ha         1 8OW       0.111500
     43 H17         -1.3500    -3.0670    -0.0030 ha         1 8OW       0.132500
@<TRIPOS>BOND
     1     1     2 ar  
     2     1     5 ar  
     3     1    14 1   
     4     2     3 ar  
     5     2    15 ar  
     6     3     4 ar  
     7     3    19 ar  
     8     4    20 ar  
     9     5    20 ar  
    10     6     7 ar  
    11     6    12 ar  
    12     6    27 1   
    13     7     8 ar  
    14     7    28 1   
    15     8     9 1   
    16     8    10 ar  
    17    10    11 ar  
    18    10    29 1   
    19    11    12 ar  
    20    11    30 1   
    21    12    13 1   
    22    13    14 1   
    23    13    31 1   
    24    13    32 1   
    25    14    33 1   
    26    15    16 ar  
    27    15    34 1   
    28    16    17 ar  
    29    16    35 1   
    30    17    18 1   
    31    17    19 ar  
    32    18    36 1   
    33    18    37 1   
    34    19    38 1   
    35    20    21 1   
    36    21    22 ar  
    37    21    26 ar  
    38    22    23 ar  
    39    22    39 1   
    40    23    24 ar  
    41    23    40 1   
    42    24    25 ar  
    43    24    41 1   
    44    25    26 ar  
    45    25    42 1   
    46    26    43 1   
@<TRIPOS>SUBSTRUCTURE
     1 8OW         1 TEMP              0 ****  ****    0 ROOT
