@<TRIPOS>MOLECULE
8OW
   43    46     1     0     0
SMALL
No Charge or Current Charge


@<TRIPOS>ATOM
      1 C4          -0.2270     0.3610    -0.0130 ca         1 8OW       0.421900
      2 C5          -0.7970     1.6520    -0.0260 ca         1 8OW      -0.227000
      3 C6          -2.2090     1.7300    -0.0320 ca         1 8OW       0.110000
      4 N1          -2.9530     0.6070    -0.0250 nb         1 8OW      -0.232000
      5 N3          -0.9890    -0.7430    -0.0060 nb         1 8OW      -0.308000
      6 CAU          4.0640    -0.7550    -1.2060 ca         1 8OW      -0.067500
      7 CAV          5.4490    -0.5140    -1.2020 ca         1 8OW      -0.156000
      8 CAW          6.1330    -0.3850     0.0170 ca         1 8OW       0.181000
      9 FAZ          7.4630    -0.1530     0.0190 f          1 8OW      -0.176000
     10 CAX          5.4410    -0.4930     1.2320 ca         1 8OW      -0.156000
     11 CAY          4.0550    -0.7340     1.2310 ca         1 8OW      -0.067500
     12 CAT          3.3600    -0.8680     0.0110 ca         1 8OW      -0.139300
     13 CAN          1.8610    -1.1260     0.0080 c3         1 8OW       0.285100
     14 NAL          1.1490     0.1570    -0.0060 nu         1 8OW      -0.931100
     15 CAF         -0.0260     2.8360    -0.0340 ca         1 8OW      -0.028000
     16 CAA         -0.6660     4.0860    -0.0480 ca         1 8OW      -0.189000
     17 CAB         -2.0630     4.1610    -0.0530 ca         1 8OW       0.340000
     18 NAM         -2.6800     5.3810    -0.0650 nv         1 8OW      -1.090000
     19 CAC         -2.8280     2.9910    -0.0450 ca         1 8OW      -0.203000
     20 C2          -2.3270    -0.5880    -0.0120 cp         1 8OW       0.253500
     21 CAK         -3.1800    -1.8340    -0.0040 cp         1 8OW      -0.150500
     22 CAO         -4.6030    -1.7610    -0.0100 ca         1 8OW      -0.066000
     23 CAP         -5.3950    -2.9220    -0.0020 ca         1 8OW      -0.130500
     24 CAQ         -4.7930    -4.1880     0.0110 ca         1 8OW      -0.095000
     25 CAR         -3.3940    -4.2920     0.0170 ca         1 8OW      -0.130500
     26 CAS         -2.5980    -3.1340     0.0100 ca         1 8OW      -0.066000
     27 H1           3.5360    -0.8530    -2.1530 ha         1 8OW       0.123000
     28 H2           5.9920    -0.4280    -2.1390 ha         1 8OW       0.135500
     29 H3           5.9770    -0.3900     2.1720 ha         1 8OW       0.135500
     30 H4           3.5210    -0.8150     2.1760 ha         1 8OW       0.123000
     31 H5           1.5920    -1.7240    -0.8750 h1         1 8OW       0.063700
     32 H6           1.5860    -1.7080     0.8990 h1         1 8OW       0.063700
     33 H7           1.7250     0.9950    -0.0110 hn         1 8OW       0.501000
     34 H8           1.0600     2.8060    -0.0310 ha         1 8OW       0.103000
     35 H9          -0.0700     4.9940    -0.0550 ha         1 8OW       0.113000
     36 H10         -3.6830     5.4370     0.1040 hn         1 8OW       0.464500
     37 H11         -2.1330     6.2230     0.0990 hn         1 8OW       0.464500
     38 H12         -3.9130     3.0550    -0.0510 ha         1 8OW       0.132000
     39 H13         -5.1060    -0.7970    -0.0200 ha         1 8OW       0.132500
     40 H14         -6.4800    -2.8380    -0.0070 ha         1 8OW       0.111500
     41 H15         -5.4080    -5.0860     0.0170 ha         1 8OW       0.110000
     42 H16         -2.9240    -5.2730     0.0280 ha         1 8OW       0.111500
     43 H17         -1.5170    -3.2550     0.0150 ha         1 8OW       0.132500
@<TRIPOS>BOND
     1     1     2 ar  
     2     1     5 ar  
     3     1    14 1   
     4     2     3 ar  
     5     2    15 ar  
     6     3     4 ar  
     7     3    19 ar  
     8     4    20 ar  
     9     5    20 ar  
    10     6     7 ar  
    11     6    12 ar  
    12     6    27 1   
    13     7     8 ar  
    14     7    28 1   
    15     8     9 1   
    16     8    10 ar  
    17    10    11 ar  
    18    10    29 1   
    19    11    12 ar  
    20    11    30 1   
    21    12    13 1   
    22    13    14 1   
    23    13    31 1   
    24    13    32 1   
    25    14    33 1   
    26    15    16 ar  
    27    15    34 1   
    28    16    17 ar  
    29    16    35 1   
    30    17    18 1   
    31    17    19 ar  
    32    18    36 1   
    33    18    37 1   
    34    19    38 1   
    35    20    21 1   
    36    21    22 ar  
    37    21    26 ar  
    38    22    23 ar  
    39    22    39 1   
    40    23    24 ar  
    41    23    40 1   
    42    24    25 ar  
    43    24    41 1   
    44    25    26 ar  
    45    25    42 1   
    46    26    43 1   
@<TRIPOS>SUBSTRUCTURE
     1 8OW         1 TEMP              0 ****  ****    0 ROOT
