@<TRIPOS>MOLECULE
8OX
   33    35     1     0     0
SMALL
bcc


@<TRIPOS>ATOM
      1 O50          3.5320     2.2460     1.2420 oh         1 8OX      -0.579800
      2 C50          3.6350     1.3130     0.1940 c3         1 8OX       0.124400
      3 C40          3.0930    -0.0150     0.6790 c5         1 8OX       0.112100
      4 O40          1.7180     0.0930     1.0540 os         1 8OX      -0.381600
      5 C30          3.1490    -1.1080    -0.3920 c5         1 8OX       0.078100
      6 O30          3.2090    -2.3970     0.1630 oh         1 8OX      -0.567800
      7 C20          1.7790    -0.9440    -1.0480 c5         1 8OX       0.109100
      8 O20          1.2690    -2.0580    -1.7130 oh         1 8OX      -0.556800
      9 C10          0.9120    -0.6420     0.1740 c5         1 8OX       0.327500
     10 N9          -0.3080     0.0680    -0.1040 n          1 8OX      -0.440300
     11 C8          -0.4140     1.3040    -0.7400 c          1 8OX       0.813500
     12 O8           0.4890     1.9700    -1.2010 o          1 8OX      -0.641500
     13 N7          -1.7480     1.6050    -0.7390 ns         1 8OX      -0.445100
     14 C5          -2.4660     0.6020    -0.1190 ca         1 8OX      -0.311000
     15 C6          -3.8110     0.3720     0.1610 ca         1 8OX       0.725200
     16 N6          -4.7990     1.2310    -0.1450 nv         1 8OX      -0.956500
     17 N1          -4.1250    -0.7610     0.8070 nb         1 8OX      -0.793000
     18 C2          -3.1610    -1.5990     1.1470 ca         1 8OX       0.695900
     19 N3          -1.8590    -1.4730     0.9220 nb         1 8OX      -0.726000
     20 C4          -1.5580    -0.3560     0.2830 ca         1 8OX       0.549200
     21 HO50         3.8380     3.0970     0.9160 ho         1 8OX       0.406000
     22 H50          3.0870     1.6410    -0.6960 h1         1 8OX       0.028200
     23 H50A         4.6800     1.1550    -0.1070 h1         1 8OX       0.028200
     24 H40          3.6650    -0.3190     1.5640 h1         1 8OX       0.078700
     25 H30          3.9690    -0.9380    -1.1020 h1         1 8OX       0.050700
     26 HO30         4.0260    -2.4730     0.6650 ho         1 8OX       0.406000
     27 H20          1.8200    -0.0680    -1.7020 h1         1 8OX       0.066700
     28 HO20         1.6980    -2.1260    -2.5710 ho         1 8OX       0.410000
     29 H10          0.5940    -1.5860     0.6300 h2         1 8OX       0.119700
     30 HN7         -2.1100     2.4530    -1.1450 hn         1 8OX       0.350500
     31 HN6         -4.6470     1.9750    -0.8030 hn         1 8OX       0.434800
     32 HN6A        -5.7480     0.9070    -0.0600 hn         1 8OX       0.434800
     33 H2          -3.4720    -2.4970     1.6690 h5         1 8OX       0.054100
@<TRIPOS>BOND
     1     1     2 1   
     2     1    21 1   
     3     2     3 1   
     4     2    22 1   
     5     2    23 1   
     6     3     4 1   
     7     3     5 1   
     8     3    24 1   
     9     4     9 1   
    10     5     6 1   
    11     5     7 1   
    12     5    25 1   
    13     6    26 1   
    14     7     8 1   
    15     7     9 1   
    16     7    27 1   
    17     8    28 1   
    18     9    10 1   
    19     9    29 1   
    20    10    11 1   
    21    10    20 1   
    22    11    12 2   
    23    11    13 1   
    24    13    14 1   
    25    13    30 1   
    26    14    15 ar  
    27    14    20 ar  
    28    15    16 1   
    29    15    17 ar  
    30    16    31 1   
    31    16    32 1   
    32    17    18 ar  
    33    18    19 ar  
    34    18    33 1   
    35    19    20 ar  
@<TRIPOS>SUBSTRUCTURE
     1 8OX         1 TEMP              0 ****  ****    0 ROOT
