@<TRIPOS>MOLECULE
8OX
   33    35     1     0     0
SMALL
No Charge or Current Charge


@<TRIPOS>ATOM
      1 O50          4.1960     2.3440     0.8440 oh         1 8OX      -0.702000
      2 C50          3.7950     1.3610    -0.1280 c3         1 8OX       0.147600
      3 C40          3.2480     0.0740     0.5590 c5         1 8OX       0.135300
      4 O40          1.9310     0.3440     1.1220 os         1 8OX      -0.428000
      5 C30          3.0480    -1.1270    -0.4380 c5         1 8OX       0.101300
      6 O30          3.1120    -2.4140     0.2090 oh         1 8OX      -0.690000
      7 C20          1.6050    -0.8430    -0.9390 c5         1 8OX       0.132300
      8 O20          1.0570    -2.0060    -1.5800 oh         1 8OX      -0.679000
      9 C10          0.9650    -0.4830     0.4410 c5         1 8OX       0.350700
     10 N9          -0.3170     0.2050     0.1900 n          1 8OX      -0.373300
     11 C8          -0.4480     1.5730    -0.1190 c          1 8OX       0.604000
     12 O8           0.4170     2.4150    -0.2880 o          1 8OX      -0.566000
     13 N7          -1.8010     1.7600    -0.2300 ns         1 8OX      -0.491600
     14 C5          -2.5380     0.5790    -0.0040 ca         1 8OX      -0.180400
     15 C6          -3.8940     0.2380     0.0120 ca         1 8OX       0.396900
     16 N6          -4.8910     1.1260    -0.2440 nv         1 8OX      -1.066900
     17 N1          -4.2580    -1.0290     0.2890 nb         1 8OX      -0.267000
     18 C2          -3.2540    -1.9180     0.5430 ca         1 8OX       0.169900
     19 N3          -1.9170    -1.6690     0.5480 nb         1 8OX      -0.200000
     20 C4          -1.6050    -0.3950     0.2650 ca         1 8OX       0.220900
     21 HO50         4.3990     3.1730     0.3500 ho         1 8OX       0.505000
     22 H50          3.0270     1.7700    -0.7980 h1         1 8OX       0.028200
     23 H50A         4.6580     1.0850    -0.7490 h1         1 8OX       0.028200
     24 H40          3.9380    -0.2020     1.3690 h1         1 8OX       0.078700
     25 H30          3.7700    -1.0840    -1.2660 h1         1 8OX       0.050700
     26 HO30         4.0530    -2.5770     0.4610 ho         1 8OX       0.505000
     27 H20          1.5820     0.0220    -1.6170 h1         1 8OX       0.066700
     28 HO20         1.5450    -2.7580    -1.1620 ho         1 8OX       0.509000
     29 H10          0.7590    -1.3880     1.0280 h2         1 8OX       0.119700
     30 HN7         -2.2020     2.6700    -0.4380 hn         1 8OX       0.464000
     31 HN6         -4.6590     2.0010    -0.7060 hn         1 8OX       0.490000
     32 HN6A        -5.8290     0.7640    -0.4070 hn         1 8OX       0.490000
     33 H2          -3.5560    -2.9400     0.7670 h5         1 8OX       0.054100
@<TRIPOS>BOND
     1     1     2 1   
     2     1    21 1   
     3     2     3 1   
     4     2    22 1   
     5     2    23 1   
     6     3     4 1   
     7     3     5 1   
     8     3    24 1   
     9     4     9 1   
    10     5     6 1   
    11     5     7 1   
    12     5    25 1   
    13     6    26 1   
    14     7     8 1   
    15     7     9 1   
    16     7    27 1   
    17     8    28 1   
    18     9    10 1   
    19     9    29 1   
    20    10    11 1   
    21    10    20 1   
    22    11    12 2   
    23    11    13 1   
    24    13    14 1   
    25    13    30 1   
    26    14    15 ar  
    27    14    20 ar  
    28    15    16 1   
    29    15    17 ar  
    30    16    31 1   
    31    16    32 1   
    32    17    18 ar  
    33    18    19 ar  
    34    18    33 1   
    35    19    20 ar  
@<TRIPOS>SUBSTRUCTURE
     1 8OX         1 TEMP              0 ****  ****    0 ROOT
