@<TRIPOS>MOLECULE
8OY
   58    61     1     0     0
SMALL
No Charge or Current Charge


@<TRIPOS>ATOM
      1 O01         -0.1280    -4.1860     0.5950 o          1 8OY      -0.604100
      2 C02         -0.5760    -3.1050     0.2090 c          1 8OY       0.501600
      3 C03         -2.0690    -2.8510    -0.0060 ca         1 8OY       0.301500
      4 N04         -2.4680    -1.6350    -0.4880 nb         1 8OY      -0.675000
      5 C05         -3.7870    -1.3960    -0.6620 ca         1 8OY       0.359300
      6 C06         -4.1580    -0.0260    -1.2190 c3         1 8OY      -0.119700
      7 C07         -3.6660     1.1870    -0.3690 c6         1 8OY      -0.057700
      8 C08         -4.0090     2.5340    -1.0650 c6         1 8OY      -0.068400
      9 C09         -3.5130     3.7450    -0.2370 c6         1 8OY      -0.075400
     10 C10         -4.0840     3.7130     1.2010 c6         1 8OY      -0.072400
     11 C11         -3.7510     2.3750     1.9050 c6         1 8OY      -0.075400
     12 C12         -4.2450     1.1630     1.0750 c6         1 8OY      -0.068400
     13 C13         -4.7710    -2.3590    -0.3760 ca         1 8OY      -0.159000
     14 C14         -4.3800    -3.6150     0.1130 ca         1 8OY      -0.086000
     15 C15         -3.0090    -3.8610     0.2980 ca         1 8OY      -0.116000
     16 N16          0.2200    -1.9950    -0.0450 ns         1 8OY      -0.109000
     17 C17          1.6290    -1.7920    -0.0110 ca         1 8OY      -0.056000
     18 C18          2.5370    -2.8610    -0.1490 ca         1 8OY      -0.154000
     19 C19          3.9220    -2.6270    -0.1520 ca         1 8OY      -0.068000
     20 C20          4.4330    -1.3170    -0.0180 ca         1 8OY      -0.139600
     21 C21          5.9310    -1.0640    -0.0120 c          1 8OY       0.713600
     22 O22          6.3300     0.0870     0.0980 o          1 8OY      -0.717500
     23 O23          6.6870    -2.0190    -0.1170 o          1 8OY      -0.717500
     24 C24          3.5160    -0.2490     0.1140 ca         1 8OY      -0.083000
     25 C25          2.1250    -0.4720     0.1080 ca         1 8OY       0.161000
     26 N26          1.2340     0.6020     0.2810 nu         1 8OY      -0.973000
     27 C27          1.2740     1.9520    -0.0820 ca         1 8OY       0.312000
     28 C28          2.1150     2.4160    -1.1110 ca         1 8OY      -0.163000
     29 C29          2.1200     3.7770    -1.4640 ca         1 8OY      -0.082000
     30 C30          1.2780     4.6780    -0.7920 ca         1 8OY      -0.162000
     31 C31          0.4270     4.2190     0.2270 ca         1 8OY      -0.082000
     32 C32          0.4230     2.8570     0.5740 ca         1 8OY      -0.163000
     33 H061        -3.7500     0.0550    -2.2330 hc         1 8OY       0.048200
     34 H062        -5.2470     0.0380    -1.3390 hc         1 8OY       0.048200
     35 H071        -2.5700     1.1070    -0.3070 hc         1 8OY       0.080700
     36 H082        -3.5540     2.5660    -2.0650 hc         1 8OY       0.034200
     37 H081        -5.0950     2.6120    -1.2150 hc         1 8OY       0.034200
     38 H091        -2.4160     3.7410    -0.2010 hc         1 8OY       0.041700
     39 H092        -3.8050     4.6800    -0.7330 hc         1 8OY       0.041700
     40 H101        -3.6760     4.5510     1.7820 hc         1 8OY       0.032200
     41 H102        -5.1730     3.8530     1.1700 hc         1 8OY       0.032200
     42 H112        -2.6660     2.2980     2.0610 hc         1 8OY       0.041700
     43 H111        -4.2100     2.3550     2.9020 hc         1 8OY       0.041700
     44 H122        -5.3440     1.1670     1.0360 hc         1 8OY       0.034200
     45 H121        -3.9560     0.2350     1.5860 hc         1 8OY       0.034200
     46 H131        -5.8220    -2.1350    -0.5330 ha         1 8OY       0.116000
     47 H141        -5.1190    -4.3790     0.3430 ha         1 8OY       0.115000
     48 H151        -2.6760    -4.8230     0.6790 ha         1 8OY       0.147000
     49 H161        -0.3070    -1.1790    -0.3330 hn         1 8OY       0.188000
     50 H181         2.1840    -3.8810    -0.2740 ha         1 8OY       0.126000
     51 H191         4.5990    -3.4720    -0.2620 ha         1 8OY       0.133000
     52 H241         3.8880     0.7630     0.2420 ha         1 8OY       0.139000
     53 H261         0.3900     0.3590     0.7970 hn         1 8OY       0.455000
     54 H281         2.7530     1.7230    -1.6490 ha         1 8OY       0.117500
     55 H291         2.7720     4.1300    -2.2600 ha         1 8OY       0.100500
     56 H301         1.2800     5.7310    -1.0650 ha         1 8OY       0.101000
     57 H311        -0.2300     4.9160     0.7440 ha         1 8OY       0.100500
     58 H321        -0.2380     2.5070     1.3620 ha         1 8OY       0.117500
@<TRIPOS>BOND
     1     1     2 2   
     2     2     3 1   
     3     2    16 1   
     4     3     4 ar  
     5     3    15 ar  
     6     4     5 ar  
     7     5     6 1   
     8     5    13 ar  
     9     6     7 1   
    10     6    33 1   
    11     6    34 1   
    12     7     8 1   
    13     7    12 1   
    14     7    35 1   
    15     8     9 1   
    16     8    36 1   
    17     8    37 1   
    18     9    10 1   
    19     9    38 1   
    20     9    39 1   
    21    10    11 1   
    22    10    40 1   
    23    10    41 1   
    24    11    12 1   
    25    11    42 1   
    26    11    43 1   
    27    12    44 1   
    28    12    45 1   
    29    13    14 ar  
    30    13    46 1   
    31    14    15 ar  
    32    14    47 1   
    33    15    48 1   
    34    16    17 1   
    35    16    49 1   
    36    17    18 ar  
    37    17    25 ar  
    38    18    19 ar  
    39    18    50 1   
    40    19    20 ar  
    41    19    51 1   
    42    20    21 1   
    43    20    24 ar  
    44    21    22 1   
    45    21    23 1   
    46    24    25 ar  
    47    24    52 1   
    48    25    26 1   
    49    26    27 1   
    50    26    53 1   
    51    27    28 ar  
    52    27    32 ar  
    53    28    29 ar  
    54    28    54 1   
    55    29    30 ar  
    56    29    55 1   
    57    30    31 ar  
    58    30    56 1   
    59    31    32 ar  
    60    31    57 1   
    61    32    58 1   
@<TRIPOS>SUBSTRUCTURE
     1 8OY         1 TEMP              0 ****  ****    0 ROOT
