@<TRIPOS>MOLECULE
8OY
   58    61     1     0     0
SMALL
bcc


@<TRIPOS>ATOM
      1 O01         -0.1880    -4.1220     0.0760 o          1 8OY      -0.604100
      2 C02         -0.6460    -3.0070    -0.1120 c          1 8OY       0.568600
      3 C03         -2.1110    -2.8020    -0.3750 ca         1 8OY       0.366800
      4 N04         -2.5110    -1.5610    -0.6270 nb         1 8OY      -0.675000
      5 C05         -3.7960    -1.3130    -0.8430 ca         1 8OY       0.424600
      6 C06         -4.1940     0.1020    -1.1520 c3         1 8OY      -0.119700
      7 C07         -3.5200     1.1610    -0.2810 c6         1 8OY      -0.057700
      8 C08         -3.9440     2.5590    -0.7290 c6         1 8OY      -0.068400
      9 C09         -3.3100     3.6520     0.1240 c6         1 8OY      -0.075400
     10 C10         -3.6050     3.4450     1.6070 c6         1 8OY      -0.072400
     11 C11         -3.1890     2.0490     2.0600 c6         1 8OY      -0.075400
     12 C12         -3.8350     0.9670     1.2020 c6         1 8OY      -0.068400
     13 C13         -4.7390    -2.3410    -0.8040 ca         1 8OY      -0.242300
     14 C14         -4.3230    -3.6360    -0.5530 ca         1 8OY      -0.104000
     15 C15         -2.9760    -3.8840    -0.3330 ca         1 8OY      -0.199300
     16 N16          0.0520    -1.8550    -0.0970 ns         1 8OY      -0.435100
     17 C17          1.4070    -1.6450     0.1330 ca         1 8OY       0.036600
     18 C18          2.3750    -2.6510     0.1350 ca         1 8OY      -0.172000
     19 C19          3.7090    -2.3290     0.3300 ca         1 8OY      -0.086000
     20 C20          4.1220    -1.0170     0.5330 ca         1 8OY      -0.139600
     21 C21          5.5880    -0.6700     0.7480 c          1 8OY       0.924200
     22 O22          5.8570     0.5340     0.9250 o          1 8OY      -0.822800
     23 O23          6.3950    -1.6190     0.7280 o          1 8OY      -0.822800
     24 C24          3.1500    -0.0240     0.5470 ca         1 8OY      -0.101000
     25 C25          1.8090    -0.3170     0.3520 ca         1 8OY       0.022600
     26 N26          0.8120     0.6910     0.3810 nu         1 8OY      -0.641000
     27 C27          1.0020     1.9100    -0.2620 ca         1 8OY       0.173600
     28 C28          1.6410     1.9790    -1.5040 ca         1 8OY      -0.181000
     29 C29          1.7820     3.1970    -2.1500 ca         1 8OY      -0.100000
     30 C30          1.2850     4.3670    -1.5860 ca         1 8OY      -0.180000
     31 C31          0.6460     4.2990    -0.3560 ca         1 8OY      -0.100000
     32 C32          0.5120     3.0870     0.3060 ca         1 8OY      -0.181000
     33 H061        -3.9570     0.2990    -2.2040 hc         1 8OY       0.048200
     34 H062        -5.2810     0.1930    -1.0650 hc         1 8OY       0.048200
     35 H071        -2.4340     1.0730    -0.4120 hc         1 8OY       0.080700
     36 H082        -3.6850     2.7060    -1.7820 hc         1 8OY       0.034200
     37 H081        -5.0370     2.6370    -0.6650 hc         1 8OY       0.034200
     38 H091        -2.2270     3.6490    -0.0340 hc         1 8OY       0.041700
     39 H092        -3.6670     4.6330    -0.2000 hc         1 8OY       0.041700
     40 H101        -3.0960     4.2060     2.2040 hc         1 8OY       0.032200
     41 H102        -4.6780     3.5760     1.7840 hc         1 8OY       0.032200
     42 H112        -2.0990     1.9550     1.9920 hc         1 8OY       0.041700
     43 H111        -3.4430     1.8990     3.1120 hc         1 8OY       0.041700
     44 H122        -4.9230     0.9910     1.3410 hc         1 8OY       0.034200
     45 H121        -3.5000    -0.0180     1.5380 hc         1 8OY       0.034200
     46 H131        -5.7850    -2.1200    -0.9710 ha         1 8OY       0.134000
     47 H141        -5.0410    -4.4450    -0.5220 ha         1 8OY       0.133000
     48 H151        -2.6130    -4.8800    -0.1260 ha         1 8OY       0.165000
     49 H161        -0.5000    -1.0150    -0.2420 hn         1 8OY       0.354500
     50 H181         2.0960    -3.6790    -0.0280 ha         1 8OY       0.144000
     51 H191         4.4440    -3.1230     0.3210 ha         1 8OY       0.151000
     52 H241         3.4440     1.0040     0.7190 ha         1 8OY       0.157000
     53 H261         0.3420     0.7680     1.2730 hn         1 8OY       0.399800
     54 H281         2.0240     1.0790    -1.9670 ha         1 8OY       0.135500
     55 H291         2.2820     3.2290    -3.1100 ha         1 8OY       0.118500
     56 H301         1.3980     5.3140    -2.0960 ha         1 8OY       0.119000
     57 H311         0.2550     5.1980     0.1040 ha         1 8OY       0.118500
     58 H321         0.0240     3.0570     1.2740 ha         1 8OY       0.135500
@<TRIPOS>BOND
     1     1     2 2   
     2     2     3 1   
     3     2    16 1   
     4     3     4 ar  
     5     3    15 ar  
     6     4     5 ar  
     7     5     6 1   
     8     5    13 ar  
     9     6     7 1   
    10     6    33 1   
    11     6    34 1   
    12     7     8 1   
    13     7    12 1   
    14     7    35 1   
    15     8     9 1   
    16     8    36 1   
    17     8    37 1   
    18     9    10 1   
    19     9    38 1   
    20     9    39 1   
    21    10    11 1   
    22    10    40 1   
    23    10    41 1   
    24    11    12 1   
    25    11    42 1   
    26    11    43 1   
    27    12    44 1   
    28    12    45 1   
    29    13    14 ar  
    30    13    46 1   
    31    14    15 ar  
    32    14    47 1   
    33    15    48 1   
    34    16    17 1   
    35    16    49 1   
    36    17    18 ar  
    37    17    25 ar  
    38    18    19 ar  
    39    18    50 1   
    40    19    20 ar  
    41    19    51 1   
    42    20    21 1   
    43    20    24 ar  
    44    21    22 1   
    45    21    23 1   
    46    24    25 ar  
    47    24    52 1   
    48    25    26 1   
    49    26    27 1   
    50    26    53 1   
    51    27    28 ar  
    52    27    32 ar  
    53    28    29 ar  
    54    28    54 1   
    55    29    30 ar  
    56    29    55 1   
    57    30    31 ar  
    58    30    56 1   
    59    31    32 ar  
    60    31    57 1   
    61    32    58 1   
@<TRIPOS>SUBSTRUCTURE
     1 8OY         1 TEMP              0 ****  ****    0 ROOT
