@<TRIPOS>MOLECULE
8OZ
   18    18     1     0     0
SMALL
No Charge or Current Charge


@<TRIPOS>ATOM
      1 C4           2.3010     1.1130     0.7240 ca         1 8OZ      -0.131000
      2 C5           3.1320     0.3520    -0.1150 ca         1 8OZ      -0.143000
      3 C6           2.5980    -0.7280    -0.8370 ca         1 8OZ      -0.131000
      4 C7           1.2320    -1.0440    -0.7220 ca         1 8OZ      -0.095500
      5 C8          -2.0940     0.4170    -0.1020 c          1 8OZ       0.712200
      6 C           -1.3900    -1.8910     0.6560 c2         1 8OZ      -0.329000
      7 O           -1.7220     1.5030    -0.5230 o          1 8OZ      -0.720000
      8 C2           0.3900    -0.2810     0.1110 ca         1 8OZ       0.012200
      9 C3           0.9360     0.7960     0.8380 ca         1 8OZ      -0.095500
     10 O1          -3.2780     0.1400     0.0340 o          1 8OZ      -0.720000
     11 H1           2.7140     1.9470     1.2880 ha         1 8OZ       0.088500
     12 H2           4.1880     0.5970    -0.2030 ha         1 8OZ       0.085000
     13 H3           3.2400    -1.3200    -1.4840 ha         1 8OZ       0.088500
     14 H4           0.8250    -1.8830    -1.2820 ha         1 8OZ       0.116000
     15 H5          -0.6320    -2.6350     0.9000 ha         1 8OZ       0.146500
     16 H6          -2.4290    -2.2040     0.7650 ha         1 8OZ       0.146500
     17 H8           0.3000     1.3850     1.4950 ha         1 8OZ       0.116000
     18 C1          -1.0550    -0.6390     0.2430 ce         1 8OZ      -0.147400
@<TRIPOS>BOND
     1     1     2 ar  
     2     1     9 ar  
     3     1    11 1   
     4     2     3 ar  
     5     2    12 1   
     6     3     4 ar  
     7     3    13 1   
     8     4     8 ar  
     9     4    14 1   
    10     5     7 1   
    11     5    10 1   
    12     5    18 1   
    13     6    15 1   
    14     6    16 1   
    15     6    18 2   
    16     8     9 ar  
    17     8    18 1   
    18     9    17 1   
@<TRIPOS>SUBSTRUCTURE
     1 8OZ         1 TEMP              0 ****  ****    0 ROOT
