@<TRIPOS>MOLECULE
8OZ
   18    18     1     0     0
SMALL
abcg2


@<TRIPOS>ATOM
      1 C4           2.2770     1.1320     0.6700 ca         1 8OZ      -0.131000
      2 C5           3.1240     0.3410    -0.0980 ca         1 8OZ      -0.143000
      3 C6           2.6060    -0.7590    -0.7670 ca         1 8OZ      -0.131000
      4 C7           1.2550    -1.0640    -0.6650 ca         1 8OZ      -0.095500
      5 C8          -2.1030     0.4310     0.0100 c          1 8OZ       0.712200
      6 C           -1.3820    -1.8940     0.5420 c2         1 8OZ      -0.329000
      7 O           -1.6980     1.5230    -0.4330 o          1 8OZ      -0.720000
      8 C2           0.3930    -0.2770     0.1000 ca         1 8OZ       0.012200
      9 C3           0.9260     0.8330     0.7590 ca         1 8OZ      -0.095500
     10 O1          -3.2810     0.1180     0.2610 o          1 8OZ      -0.720000
     11 H1           2.6720     1.9910     1.1980 ha         1 8OZ       0.088500
     12 H2           4.1770     0.5810    -0.1730 ha         1 8OZ       0.085000
     13 H3           3.2520    -1.3800    -1.3740 ha         1 8OZ       0.088500
     14 H4           0.8600    -1.9200    -1.1980 ha         1 8OZ       0.116000
     15 H5          -0.6480    -2.6720     0.7090 ha         1 8OZ       0.146500
     16 H6          -2.4220    -2.1750     0.6390 ha         1 8OZ       0.146500
     17 H8           0.2830     1.4580     1.3640 ha         1 8OZ       0.116000
     18 C1          -1.0340    -0.6420     0.2430 ce         1 8OZ      -0.147400
@<TRIPOS>BOND
     1     1     2 ar  
     2     1     9 ar  
     3     1    11 1   
     4     2     3 ar  
     5     2    12 1   
     6     3     4 ar  
     7     3    13 1   
     8     4     8 ar  
     9     4    14 1   
    10     5     7 1   
    11     5    10 1   
    12     5    18 1   
    13     6    15 1   
    14     6    16 1   
    15     6    18 2   
    16     8     9 ar  
    17     8    18 1   
    18     9    17 1   
@<TRIPOS>SUBSTRUCTURE
     1 8OZ         1 TEMP              0 ****  ****    0 ROOT
