@<TRIPOS>MOLECULE
8P0
   26    29     1     0     0
SMALL
abcg2


@<TRIPOS>ATOM
      1 C01         -3.5260    -0.0000     0.0070 ca         1 8P0      -0.107000
      2 C02         -2.8410     1.2050    -0.0080 ca         1 8P0      -0.094000
      3 C03         -1.4450     1.2280    -0.0150 ca         1 8P0      -0.033000
      4 C04         -0.7040     2.4550    -0.0300 ca         1 8P0      -0.095250
      5 C05          0.6480     2.4560    -0.0360 ca         1 8P0      -0.095250
      6 C06          1.3930     1.2320    -0.0280 ca         1 8P0      -0.033000
      7 C07          2.7880     1.2110    -0.0340 ca         1 8P0      -0.094000
      8 C08          3.4760     0.0070    -0.0250 ca         1 8P0      -0.107000
      9 C09          2.7910    -1.1980    -0.0100 ca         1 8P0      -0.094000
     10 C10          1.3950    -1.2210    -0.0030 ca         1 8P0      -0.033000
     11 C11          0.6850     0.0040    -0.0120 ca         1 8P0      -0.015000
     12 C12         -0.7350     0.0030    -0.0060 ca         1 8P0      -0.015000
     13 C13         -1.4430    -1.2240     0.0090 ca         1 8P0      -0.033000
     14 C14         -2.8380    -1.2040     0.0160 ca         1 8P0      -0.094000
     15 C15         -0.6980    -2.4490     0.0190 ca         1 8P0      -0.095250
     16 C16          0.6540    -2.4480     0.0120 ca         1 8P0      -0.095250
     17 H011        -4.6080    -0.0010     0.0120 ha         1 8P0       0.114000
     18 H021        -3.3890     2.1390    -0.0150 ha         1 8P0       0.114000
     19 H041        -1.2520     3.3890    -0.0380 ha         1 8P0       0.113750
     20 H051         1.1940     3.3920    -0.0490 ha         1 8P0       0.113750
     21 H071         3.3340     2.1460    -0.0460 ha         1 8P0       0.114000
     22 H081         4.5580     0.0090    -0.0290 ha         1 8P0       0.114000
     23 H091         3.3390    -2.1320    -0.0050 ha         1 8P0       0.114000
     24 H141        -3.3840    -2.1390     0.0280 ha         1 8P0       0.114000
     25 H151        -1.2440    -3.3850     0.0310 ha         1 8P0       0.113750
     26 H161         1.2020    -3.3820     0.0200 ha         1 8P0       0.113750
@<TRIPOS>BOND
     1     1     2 ar  
     2     1    14 ar  
     3     1    17 1   
     4     2     3 ar  
     5     2    18 1   
     6     3     4 ar  
     7     3    12 ar  
     8     4     5 ar  
     9     4    19 1   
    10     5     6 ar  
    11     5    20 1   
    12     6     7 ar  
    13     6    11 ar  
    14     7     8 ar  
    15     7    21 1   
    16     8     9 ar  
    17     8    22 1   
    18     9    10 ar  
    19     9    23 1   
    20    10    11 ar  
    21    10    16 ar  
    22    11    12 ar  
    23    12    13 ar  
    24    13    14 ar  
    25    13    15 ar  
    26    14    24 1   
    27    15    16 ar  
    28    15    25 1   
    29    16    26 1   
@<TRIPOS>SUBSTRUCTURE
     1 8P0         1 TEMP              0 ****  ****    0 ROOT
