@<TRIPOS>MOLECULE
8P0
   26    29     1     0     0
SMALL
No Charge or Current Charge


@<TRIPOS>ATOM
      1 C01         -3.5450    -0.0000     0.0070 ca         1 8P0      -0.107000
      2 C02         -2.8450     1.2190    -0.0080 ca         1 8P0      -0.094000
      3 C03         -1.4380     1.2250    -0.0150 ca         1 8P0      -0.033000
      4 C04         -0.7310     2.4420    -0.0300 ca         1 8P0      -0.095250
      5 C05          0.6750     2.4440    -0.0370 ca         1 8P0      -0.095250
      6 C06          1.3850     1.2280    -0.0280 ca         1 8P0      -0.033000
      7 C07          2.7920     1.2250    -0.0340 ca         1 8P0      -0.094000
      8 C08          3.4950     0.0070    -0.0250 ca         1 8P0      -0.107000
      9 C09          2.7950    -1.2120    -0.0100 ca         1 8P0      -0.094000
     10 C10          1.3880    -1.2180    -0.0030 ca         1 8P0      -0.033000
     11 C11          0.6810     0.0040    -0.0120 ca         1 8P0      -0.015000
     12 C12         -0.7310     0.0030    -0.0060 ca         1 8P0      -0.015000
     13 C13         -1.4350    -1.2210     0.0100 ca         1 8P0      -0.033000
     14 C14         -2.8420    -1.2180     0.0160 ca         1 8P0      -0.094000
     15 C15         -0.7250    -2.4370     0.0190 ca         1 8P0      -0.095250
     16 C16          0.6810    -2.4350     0.0120 ca         1 8P0      -0.095250
     17 H011        -4.6320    -0.0010     0.0120 ha         1 8P0       0.114000
     18 H021        -3.3980     2.1560    -0.0150 ha         1 8P0       0.114000
     19 H041        -1.2680     3.3880    -0.0370 ha         1 8P0       0.113750
     20 H051         1.2110     3.3900    -0.0490 ha         1 8P0       0.113750
     21 H071         3.3430     2.1630    -0.0460 ha         1 8P0       0.114000
     22 H081         4.5820     0.0090    -0.0300 ha         1 8P0       0.114000
     23 H091         3.3480    -2.1490    -0.0030 ha         1 8P0       0.114000
     24 H141        -3.3930    -2.1560     0.0280 ha         1 8P0       0.114000
     25 H151        -1.2610    -3.3830     0.0310 ha         1 8P0       0.113750
     26 H161         1.2180    -3.3810     0.0190 ha         1 8P0       0.113750
@<TRIPOS>BOND
     1     1     2 ar  
     2     1    14 ar  
     3     1    17 1   
     4     2     3 ar  
     5     2    18 1   
     6     3     4 ar  
     7     3    12 ar  
     8     4     5 ar  
     9     4    19 1   
    10     5     6 ar  
    11     5    20 1   
    12     6     7 ar  
    13     6    11 ar  
    14     7     8 ar  
    15     7    21 1   
    16     8     9 ar  
    17     8    22 1   
    18     9    10 ar  
    19     9    23 1   
    20    10    11 ar  
    21    10    16 ar  
    22    11    12 ar  
    23    12    13 ar  
    24    13    14 ar  
    25    13    15 ar  
    26    14    24 1   
    27    15    16 ar  
    28    15    25 1   
    29    16    26 1   
@<TRIPOS>SUBSTRUCTURE
     1 8P0         1 TEMP              0 ****  ****    0 ROOT
