@<TRIPOS>MOLECULE
8P1
   23    24     1     0     0
SMALL
bcc


@<TRIPOS>ATOM
      1 N1           3.7450     0.3330    -0.1540 nv         1 8P1      -0.847200
      2 C4          -0.3320    -0.5190     0.1150 ca         1 8P1      -0.237600
      3 C5           0.6230    -1.5460     0.0680 ca         1 8P1      -0.019000
      4 C6           1.9670    -1.2780    -0.0050 ca         1 8P1      -0.231000
      5 C7           2.4210     0.0550    -0.0370 ca         1 8P1       0.211600
      6 C8           1.4680     1.0830     0.0060 ca         1 8P1      -0.234000
      7 C10         -0.8720     1.9470     0.1480 c6         1 8P1      -0.042100
      8 C1          -2.2230     1.5460    -0.4220 c6         1 8P1      -0.066400
      9 C2          -2.7350     0.2920     0.2700 c6         1 8P1      -0.178400
     10 C3          -1.7580    -0.8560     0.2020 c          1 8P1       0.594700
     11 C9           0.1130     0.8140     0.0830 ca         1 8P1       0.019700
     12 O1          -2.1470    -2.0120     0.2420 o          1 8P1      -0.545100
     13 H1           4.4040    -0.3940     0.0700 hn         1 8P1       0.412800
     14 H2           4.0610     1.2610     0.0730 hn         1 8P1       0.412800
     15 H4           2.6840    -2.0890    -0.0390 ha         1 8P1       0.133000
     16 H5           1.8040     2.1150    -0.0280 ha         1 8P1       0.129000
     17 H6          -0.4720     2.8170    -0.3750 hc         1 8P1       0.053200
     18 H7          -0.9950     2.2490     1.1950 hc         1 8P1       0.053200
     19 H8          -2.9400     2.3590    -0.3020 hc         1 8P1       0.048700
     20 H9          -2.1280     1.3650    -1.4960 hc         1 8P1       0.048700
     21 H10         -2.9050     0.5080     1.3320 hc         1 8P1       0.067700
     22 H11         -3.6940    -0.0340    -0.1370 hc         1 8P1       0.067700
     23 H3           0.2920    -2.5760     0.0930 ha         1 8P1       0.148000
@<TRIPOS>BOND
     1     1     5 1   
     2     1    13 1   
     3     1    14 1   
     4     2     3 ar  
     5     2    10 1   
     6     2    11 ar  
     7     3     4 ar  
     8     3    23 1   
     9     4     5 ar  
    10     4    15 1   
    11     5     6 ar  
    12     6    11 ar  
    13     6    16 1   
    14     7     8 1   
    15     7    11 1   
    16     7    17 1   
    17     7    18 1   
    18     8     9 1   
    19     8    19 1   
    20     8    20 1   
    21     9    10 1   
    22     9    21 1   
    23     9    22 1   
    24    10    12 2   
@<TRIPOS>SUBSTRUCTURE
     1 8P1         1 TEMP              0 ****  ****    0 ROOT
