@<TRIPOS>MOLECULE
8P1
   23    24     1     0     0
SMALL
No Charge or Current Charge


@<TRIPOS>ATOM
      1 N1           3.7690     0.3320    -0.0350 nv         1 8P1      -1.096000
      2 C4          -0.3180    -0.5470     0.0770 ca         1 8P1      -0.237600
      3 C5           0.6370    -1.5860     0.0560 ca         1 8P1      -0.001000
      4 C6           2.0080    -1.2860     0.0180 ca         1 8P1      -0.213000
      5 C7           2.4350     0.0440    -0.0020 ca         1 8P1       0.350000
      6 C8           1.4970     1.0810     0.0120 ca         1 8P1      -0.216000
      7 C10         -0.8780     1.9640     0.0590 c6         1 8P1      -0.042100
      8 C1          -2.3000     1.5600    -0.3910 c6         1 8P1      -0.066400
      9 C2          -2.7590     0.2850     0.3460 c6         1 8P1      -0.178400
     10 C3          -1.7890    -0.8790     0.1160 c          1 8P1       0.594700
     11 C9           0.1190     0.7990     0.0460 ca         1 8P1       0.019700
     12 O1          -2.2060    -2.0160    -0.0720 o          1 8P1      -0.545100
     13 H1           4.4420    -0.4120     0.1380 hn         1 8P1       0.468000
     14 H2           4.0790     1.2870     0.1330 hn         1 8P1       0.468000
     15 H4           2.7340    -2.0940     0.0040 ha         1 8P1       0.115000
     16 H5           1.8340     2.1140    -0.0050 ha         1 8P1       0.111000
     17 H6          -0.5130     2.7770    -0.5840 hc         1 8P1       0.053200
     18 H7          -0.9230     2.3780     1.0760 hc         1 8P1       0.053200
     19 H8          -3.0020     2.3840    -0.2030 hc         1 8P1       0.048700
     20 H9          -2.3070     1.3810    -1.4760 hc         1 8P1       0.048700
     21 H10         -2.7160     0.5150     1.4190 hc         1 8P1       0.067700
     22 H11         -3.7850    -0.0140     0.0950 hc         1 8P1       0.067700
     23 H3           0.3210    -2.6280     0.0730 ha         1 8P1       0.130000
@<TRIPOS>BOND
     1     1     5 1   
     2     1    13 1   
     3     1    14 1   
     4     2     3 ar  
     5     2    10 1   
     6     2    11 ar  
     7     3     4 ar  
     8     3    23 1   
     9     4     5 ar  
    10     4    15 1   
    11     5     6 ar  
    12     6    11 ar  
    13     6    16 1   
    14     7     8 1   
    15     7    11 1   
    16     7    17 1   
    17     7    18 1   
    18     8     9 1   
    19     8    19 1   
    20     8    20 1   
    21     9    10 1   
    22     9    21 1   
    23     9    22 1   
    24    10    12 2   
@<TRIPOS>SUBSTRUCTURE
     1 8P1         1 TEMP              0 ****  ****    0 ROOT
