@<TRIPOS>MOLECULE
8P2
   24    25     1     0     0
SMALL
No Charge or Current Charge


@<TRIPOS>ATOM
      1 N1          -3.1800    -0.0830     0.2220 n1         1 8P2      -0.063500
      2 OAE         -0.9740     1.8910     0.0020 oh         1 8P2      -0.769000
      3 CAC         -0.1590     0.7320    -0.2680 c6         1 8P2       0.136300
      4 CAK          1.2900     0.9980     0.2500 c6         1 8P2       0.113300
      5 OAF          1.7710     2.2680    -0.2250 oh         1 8P2      -0.648000
      6 CAJ          2.2450    -0.1400    -0.2050 c6         1 8P2       0.180300
      7 OAG          3.5520     0.0520     0.3670 oh         1 8P2      -0.698000
      8 CAB          1.6950    -1.5320     0.1670 cx         1 8P2       0.137300
      9 OAI          0.8070    -2.1140    -0.8260 op         1 8P2      -0.419000
     10 CAA          0.2250    -1.7360     0.4370 cx         1 8P2       0.054300
     11 CAD         -0.7530    -0.5350     0.4390 c6         1 8P2      -0.071700
     12 CAH         -2.1350    -0.9990    -0.1360 c3         1 8P2       0.259100
     13 H4          -1.3420     2.2070    -0.8610 ho         1 8P2       0.549000
     14 H5          -0.1050     0.5410    -1.3530 h1         1 8P2       0.074700
     15 H6           1.2590     1.0050     1.3510 h1         1 8P2       0.065700
     16 H7           1.0100     2.8830    -0.1050 ho         1 8P2       0.468000
     17 H8           2.3120    -0.1090    -1.3040 h1         1 8P2       0.079700
     18 H9           3.7390     1.0160     0.2550 ho         1 8P2       0.539000
     19 H10          2.4190    -2.2230     0.6010 h1         1 8P2       0.140700
     20 H11         -0.0620    -2.5700     1.0800 h1         1 8P2       0.117700
     21 H12         -0.9250    -0.2850     1.4960 hc         1 8P2       0.103700
     22 H13         -2.4010    -1.9810     0.2730 h1         1 8P2       0.140700
     23 H14         -2.0860    -1.0850    -1.2280 h1         1 8P2       0.140700
     24 N2          -4.0080     0.6420     0.5080 n1         1 8P2       0.369000
@<TRIPOS>BOND
     1     1    12 1   
     2     1    24 3   
     3     2     3 1   
     4     2    13 1   
     5     3     4 1   
     6     3    11 1   
     7     3    14 1   
     8     4     5 1   
     9     4     6 1   
    10     4    15 1   
    11     5    16 1   
    12     6     7 1   
    13     6     8 1   
    14     6    17 1   
    15     7    18 1   
    16     8     9 1   
    17     8    10 1   
    18     8    19 1   
    19     9    10 1   
    20    10    11 1   
    21    10    20 1   
    22    11    12 1   
    23    11    21 1   
    24    12    22 1   
    25    12    23 1   
@<TRIPOS>SUBSTRUCTURE
     1 8P2         1 TEMP              0 ****  ****    0 ROOT
