@<TRIPOS>MOLECULE
8P2
   24    25     1     0     0
SMALL
bcc


@<TRIPOS>ATOM
      1 N1          -3.1220    -0.0970     0.1650 n1         1 8P2      -0.063500
      2 OAE         -1.1400     1.7000    -0.0820 oh         1 8P2      -0.646800
      3 CAC         -0.2180     0.6630    -0.3100 c6         1 8P2       0.113100
      4 CAK          1.1850     1.0090     0.1850 c6         1 8P2       0.090100
      5 OAF          1.6440     2.2190    -0.3680 oh         1 8P2      -0.585800
      6 CAJ          2.1740    -0.0810    -0.2150 c6         1 8P2       0.157100
      7 OAG          3.3980     0.0600     0.4600 oh         1 8P2      -0.575800
      8 CAB          1.6450    -1.4630     0.1140 cx         1 8P2       0.114100
      9 OAI          0.7620    -2.0350    -0.8390 op         1 8P2      -0.372600
     10 CAA          0.2380    -1.7000     0.4310 cx         1 8P2       0.031100
     11 CAD         -0.7290    -0.5440     0.4660 c6         1 8P2      -0.071700
     12 CAH         -2.0690    -1.0450    -0.0760 c3         1 8P2       0.259100
     13 H4          -1.0500     2.3570    -0.7790 ho         1 8P2       0.450000
     14 H5          -0.1740     0.4210    -1.3810 h1         1 8P2       0.074700
     15 H6           1.1620     1.0630     1.2840 h1         1 8P2       0.065700
     16 H7           1.3580     2.9480     0.1900 ho         1 8P2       0.429000
     17 H8           2.3190    -0.0280    -1.3050 h1         1 8P2       0.079700
     18 H9           3.7580     0.9280     0.2470 ho         1 8P2       0.440000
     19 H10          2.3830    -2.1530     0.5190 h1         1 8P2       0.140700
     20 H11         -0.0240    -2.5420     1.0680 h1         1 8P2       0.117700
     21 H12         -0.8600    -0.2720     1.5180 hc         1 8P2       0.103700
     22 H13         -2.4200    -1.9470     0.4290 h1         1 8P2       0.140700
     23 H14         -2.0810    -1.2010    -1.1550 h1         1 8P2       0.140700
     24 N2          -3.9470     0.5820     0.3710 n1         1 8P2       0.369000
@<TRIPOS>BOND
     1     1    12 1   
     2     1    24 3   
     3     2     3 1   
     4     2    13 1   
     5     3     4 1   
     6     3    11 1   
     7     3    14 1   
     8     4     5 1   
     9     4     6 1   
    10     4    15 1   
    11     5    16 1   
    12     6     7 1   
    13     6     8 1   
    14     6    17 1   
    15     7    18 1   
    16     8     9 1   
    17     8    10 1   
    18     8    19 1   
    19     9    10 1   
    20    10    11 1   
    21    10    20 1   
    22    11    12 1   
    23    11    21 1   
    24    12    22 1   
    25    12    23 1   
@<TRIPOS>SUBSTRUCTURE
     1 8P2         1 TEMP              0 ****  ****    0 ROOT
