@<TRIPOS>MOLECULE
8P3
   32    34     1     0     0
SMALL
bcc


@<TRIPOS>ATOM
      1 C1           4.2780    -1.6670    -0.6450 ca         1 8P3      -0.179000
      2 C2           3.0830    -2.1190    -1.1880 ca         1 8P3      -0.101000
      3 C3           1.9120    -1.3690    -1.0850 ca         1 8P3      -0.150000
      4 C4           1.9890    -0.1540    -0.4280 ca         1 8P3       0.082600
      5 C5           3.1800     0.3100     0.1270 ca         1 8P3      -0.156300
      6 C6           4.3310    -0.4420     0.0220 ca         1 8P3      -0.086000
      7 C7           2.9100     1.6330     0.7670 c5         1 8P3      -0.121100
      8 C8           1.4320     1.8520     0.5010 c          1 8P3       0.702500
      9 O9           0.7560     2.8030     0.8360 o          1 8P3      -0.598500
     10 N10          0.9720     0.7720    -0.2000 n          1 8P3      -0.367000
     11 C11         -0.3870     0.6300    -0.6640 c3         1 8P3       0.154300
     12 C12         -1.2870    -0.1270     0.2960 ca         1 8P3      -0.078300
     13 C13         -2.6710    -0.2350     0.0760 ca         1 8P3      -0.122600
     14 C14         -3.4460    -0.9230     1.0100 ca         1 8P3      -0.107000
     15 C15         -2.8880    -1.5200     2.1290 ca         1 8P3      -0.160000
     16 C16         -1.5240    -1.4080     2.3450 ca         1 8P3      -0.157000
     17 C17         -0.7410    -0.7100     1.4380 ca         1 8P3      -0.152000
     18 C18         -3.3890     0.3510    -1.1380 c          1 8P3       0.923200
     19 O19         -2.7090     0.5430    -2.1650 o          1 8P3      -0.826300
     20 O20         -4.6070     0.5720    -1.0050 o          1 8P3      -0.826300
     21 H1           5.1730    -2.2680    -0.7400 ha         1 8P3       0.120000
     22 H2           3.0530    -3.0720    -1.7000 ha         1 8P3       0.124000
     23 H3           0.9850    -1.7370    -1.5040 ha         1 8P3       0.160000
     24 H6           5.2610    -0.0890     0.4480 ha         1 8P3       0.121000
     25 H7           3.0960     1.6380     1.8440 hc         1 8P3       0.078200
     26 H7A          3.4930     2.4520     0.3400 hc         1 8P3       0.078200
     27 H11         -0.7820     1.6270    -0.8480 h1         1 8P3       0.093700
     28 H11A        -0.3660     0.1340    -1.6330 h1         1 8P3       0.093700
     29 H14         -4.5130    -0.9920     0.8460 ha         1 8P3       0.146000
     30 H15         -3.5140    -2.0600     2.8290 ha         1 8P3       0.104000
     31 H16         -1.0650    -1.8570     3.2160 ha         1 8P3       0.102000
     32 H17          0.3190    -0.6240     1.6400 ha         1 8P3       0.107000
@<TRIPOS>BOND
     1     1     2 ar  
     2     1     6 ar  
     3     1    21 1   
     4     2     3 ar  
     5     2    22 1   
     6     3     4 ar  
     7     3    23 1   
     8     4     5 ar  
     9     4    10 1   
    10     5     6 ar  
    11     5     7 1   
    12     6    24 1   
    13     7     8 1   
    14     7    25 1   
    15     7    26 1   
    16     8     9 2   
    17     8    10 1   
    18    10    11 1   
    19    11    12 1   
    20    11    27 1   
    21    11    28 1   
    22    12    13 ar  
    23    12    17 ar  
    24    13    14 ar  
    25    13    18 1   
    26    14    15 ar  
    27    14    29 1   
    28    15    16 ar  
    29    15    30 1   
    30    16    17 ar  
    31    16    31 1   
    32    17    32 1   
    33    18    19 1   
    34    18    20 1   
@<TRIPOS>SUBSTRUCTURE
     1 8P3         1 TEMP              0 ****  ****    0 ROOT
