@<TRIPOS>MOLECULE
8P3
   32    34     1     0     0
SMALL
No Charge or Current Charge


@<TRIPOS>ATOM
      1 C1           4.5380    -1.5160    -0.6170 ca         1 8P3      -0.161000
      2 C2           3.3660    -2.1620    -1.0720 ca         1 8P3      -0.083000
      3 C3           2.1180    -1.5100    -0.9920 ca         1 8P3      -0.132000
      4 C4           2.0890    -0.1950    -0.5010 ca         1 8P3      -0.010000
      5 C5           3.2210     0.4110     0.0030 ca         1 8P3      -0.156300
      6 C6           4.4700    -0.2240    -0.0560 ca         1 8P3      -0.068000
      7 C7           2.8600     1.7390     0.6430 c5         1 8P3      -0.121100
      8 C8           1.3180     1.8290     0.4440 c          1 8P3       0.560000
      9 O9           0.5540     2.7460     0.7190 o          1 8P3      -0.523000
     10 N10          0.9740     0.6230    -0.1990 n          1 8P3      -0.207400
     11 C11         -0.3850     0.3730    -0.7190 c3         1 8P3       0.154300
     12 C12         -1.3520    -0.2900     0.2740 ca         1 8P3      -0.078300
     13 C13         -2.7590    -0.0960     0.1680 ca         1 8P3      -0.122600
     14 C14         -3.6130    -0.6970     1.1200 ca         1 8P3      -0.089000
     15 C15         -3.0930    -1.4930     2.1520 ca         1 8P3      -0.142000
     16 C16         -1.7120    -1.7010     2.2450 ca         1 8P3      -0.139000
     17 C17         -0.8480    -1.1050     1.3140 ca         1 8P3      -0.134000
     18 C18         -3.3820     0.7320    -0.9380 c          1 8P3       0.712600
     19 O19         -3.0410     0.5150    -2.0930 o          1 8P3      -0.721000
     20 O20         -4.2400     1.5480    -0.6340 o          1 8P3      -0.721000
     21 H1           5.4950    -2.0300    -0.6720 ha         1 8P3       0.102000
     22 H2           3.4240    -3.1720    -1.4720 ha         1 8P3       0.106000
     23 H3           1.2090    -2.0160    -1.3090 ha         1 8P3       0.142000
     24 H6           5.3610     0.2600     0.3380 ha         1 8P3       0.103000
     25 H7           3.0780     1.7810     1.7150 hc         1 8P3       0.078200
     26 H7A          3.3350     2.6130     0.1850 hc         1 8P3       0.078200
     27 H11         -0.7980     1.3380    -1.0400 h1         1 8P3       0.093700
     28 H11A        -0.3140    -0.2520    -1.6170 h1         1 8P3       0.093700
     29 H14         -4.6890    -0.5510     1.0500 ha         1 8P3       0.128000
     30 H15         -3.7630    -1.9530     2.8750 ha         1 8P3       0.086000
     31 H16         -1.3070    -2.3220     3.0410 ha         1 8P3       0.084000
     32 H17          0.2200    -1.2820     1.4100 ha         1 8P3       0.089000
@<TRIPOS>BOND
     1     1     2 ar  
     2     1     6 ar  
     3     1    21 1   
     4     2     3 ar  
     5     2    22 1   
     6     3     4 ar  
     7     3    23 1   
     8     4     5 ar  
     9     4    10 1   
    10     5     6 ar  
    11     5     7 1   
    12     6    24 1   
    13     7     8 1   
    14     7    25 1   
    15     7    26 1   
    16     8     9 2   
    17     8    10 1   
    18    10    11 1   
    19    11    12 1   
    20    11    27 1   
    21    11    28 1   
    22    12    13 ar  
    23    12    17 ar  
    24    13    14 ar  
    25    13    18 1   
    26    14    15 ar  
    27    14    29 1   
    28    15    16 ar  
    29    15    30 1   
    30    16    17 ar  
    31    16    31 1   
    32    17    32 1   
    33    18    19 1   
    34    18    20 1   
@<TRIPOS>SUBSTRUCTURE
     1 8P3         1 TEMP              0 ****  ****    0 ROOT
