@<TRIPOS>MOLECULE
8P4
   18    18     1     0     0
SMALL
bcc


@<TRIPOS>ATOM
      1 N1           1.3900    -0.9340    -0.3570 ns         1 8P4      -0.439100
      2 C4          -1.7960     0.9270    -0.6970 ca         1 8P4      -0.158500
      3 C5          -0.4510     0.6090    -0.7990 ca         1 8P4      -0.097500
      4 C6           0.0370    -0.5650    -0.2330 ca         1 8P4       0.038600
      5 C7           2.4610    -0.1950    -0.0010 cs         1 8P4       0.618400
      6 C1          -0.8380    -1.4310     0.4130 ca         1 8P4      -0.097500
      7 C2          -2.1900    -1.1320     0.5040 ca         1 8P4      -0.158500
      8 C3          -2.6430     0.0500    -0.0450 ca         1 8P4       0.136900
      9 N2           3.6450    -0.7610    -0.2360 nt         1 8P4      -0.622000
     10 S1           2.3530     1.3230     0.7150 s          1 8P4      -0.650400
     11 F1          -3.9470     0.3550     0.0490 f          1 8P4      -0.140900
     12 H1           1.5590    -1.8880    -0.6430 hn         1 8P4       0.308500
     13 H2          -2.1800     1.8390    -1.1340 ha         1 8P4       0.154500
     14 H3           0.2160     1.2770    -1.3240 ha         1 8P4       0.148000
     15 H4          -0.4640    -2.3470     0.8520 ha         1 8P4       0.148000
     16 H5          -2.8720    -1.8060     1.0050 ha         1 8P4       0.154500
     17 H6           3.7440    -1.6480    -0.7040 hn         1 8P4       0.328000
     18 H7           4.4840    -0.2600    -0.0030 hn         1 8P4       0.328000
@<TRIPOS>BOND
     1     1     4 1   
     2     1     5 1   
     3     1    12 1   
     4     2     3 ar  
     5     2     8 ar  
     6     2    13 1   
     7     3     4 ar  
     8     3    14 1   
     9     4     6 ar  
    10     5     9 1   
    11     5    10 2   
    12     6     7 ar  
    13     6    15 1   
    14     7     8 ar  
    15     7    16 1   
    16     8    11 1   
    17     9    17 1   
    18     9    18 1   
@<TRIPOS>SUBSTRUCTURE
     1 8P4         1 TEMP              0 ****  ****    0 ROOT
