@<TRIPOS>MOLECULE
8P4
   18    18     1     0     0
SMALL
No Charge or Current Charge


@<TRIPOS>ATOM
      1 N1           1.4230    -0.8370    -0.1590 ns         1 8P4      -0.372100
      2 C4          -1.8450     0.9760    -0.5780 ca         1 8P4      -0.140500
      3 C5          -0.4620     0.7160    -0.6060 ca         1 8P4      -0.079500
      4 C6           0.0410    -0.5170    -0.1390 ca         1 8P4       0.038600
      5 C7           2.5640    -0.0830    -0.1580 cs         1 8P4       0.484400
      6 C1          -0.8620    -1.4920     0.3320 ca         1 8P4      -0.079500
      7 C2          -2.2440    -1.2320     0.3610 ca         1 8P4      -0.140500
      8 C3          -2.7310     0.0030    -0.0910 ca         1 8P4       0.172000
      9 N2           3.6670    -0.8370    -0.2530 nt         1 8P4      -0.555000
     10 S1           2.6910     1.5660     0.0400 s          1 8P4      -0.650400
     11 F1          -4.0580     0.2540    -0.0660 f          1 8P4      -0.176000
     12 H1           1.5940    -1.8340    -0.1980 hn         1 8P4       0.308500
     13 H2          -2.2310     1.9260    -0.9380 ha         1 8P4       0.136500
     14 H3           0.2020     1.4720    -1.0130 ha         1 8P4       0.130000
     15 H4          -0.4920    -2.4530     0.6840 ha         1 8P4       0.130000
     16 H5          -2.9360    -1.9840     0.7310 ha         1 8P4       0.136500
     17 H6           3.6130    -1.8400    -0.3540 hn         1 8P4       0.328000
     18 H7           4.5730    -0.3910    -0.2320 hn         1 8P4       0.328000
@<TRIPOS>BOND
     1     1     4 1   
     2     1     5 1   
     3     1    12 1   
     4     2     3 ar  
     5     2     8 ar  
     6     2    13 1   
     7     3     4 ar  
     8     3    14 1   
     9     4     6 ar  
    10     5     9 1   
    11     5    10 2   
    12     6     7 ar  
    13     6    15 1   
    14     7     8 ar  
    15     7    16 1   
    16     8    11 1   
    17     9    17 1   
    18     9    18 1   
@<TRIPOS>SUBSTRUCTURE
     1 8P4         1 TEMP              0 ****  ****    0 ROOT
