@<TRIPOS>MOLECULE
8P5
   45    46     1     0     0
SMALL
No Charge or Current Charge


@<TRIPOS>ATOM
      1 O3          -5.5850     1.6630    -1.1160 oh         1 8P5      -0.674000
      2 C4          -4.1450    -0.3180    -0.8340 c6         1 8P5       0.174300
      3 C5          -3.2620    -1.0950     0.1990 c6         1 8P5      -0.043700
      4 O4          -5.3310    -1.0370    -1.1840 oh         1 8P5      -0.693000
      5 C6          -2.5750    -2.3650    -0.3940 c3         1 8P5       0.180600
      6 N1           9.1710    -0.1750    -0.4680 n2         1 8P5      -0.206400
      7 C7          -2.1900    -0.1930     0.8650 cx         1 8P5      -0.080700
      8 C8          -1.1690     0.5680     0.0460 cx         1 8P5      -0.247700
      9 C9           0.2390     0.6830     0.5670 c          1 8P5       0.635100
     10 O6          -3.4750    -3.4630    -0.5810 oh         1 8P5      -0.634000
     11 C12          2.3020    -0.6710     1.0540 c3         1 8P5       0.114000
     12 C13          3.3100    -0.2440    -0.0330 c3         1 8P5      -0.094400
     13 C14          4.7820    -0.4260     0.4060 c3         1 8P5      -0.083400
     14 C15          5.7980     0.0010    -0.6800 c3         1 8P5       0.137800
     15 O10          0.7340     1.7450     0.9130 o          1 8P5      -0.595100
     16 N11          0.9160    -0.5110     0.6120 ns         1 8P5      -0.515900
     17 N16          7.1650    -0.1990    -0.1950 n2         1 8P5      -0.066200
     18 N17          8.0790     0.1060    -0.9750 n1         1 8P5       0.230000
     19 C1          -2.2750     1.3210     0.7760 cx         1 8P5      -0.067700
     20 C2          -3.3800     1.9920    -0.0650 c6         1 8P5       0.192300
     21 O2          -3.7900     3.2170     0.5620 oh         1 8P5      -0.712000
     22 C3          -4.6020     1.0510    -0.2530 c6         1 8P5       0.088300
     23 H1          -5.6220     2.6070    -0.8350 ho         1 8P5       0.460000
     24 H2          -3.5480    -0.1270    -1.7390 h1         1 8P5       0.029700
     25 H3          -3.9170    -1.4470     1.0090 hc         1 8P5       0.091700
     26 H4          -5.9600    -0.3100    -1.4160 ho         1 8P5       0.513000
     27 H5          -2.0960    -2.0960    -1.3440 h1         1 8P5       0.009700
     28 H6          -1.7780    -2.6760     0.2940 h1         1 8P5       0.009700
     29 H8          -1.8410    -0.6040     1.8120 hc         1 8P5       0.106700
     30 H9          -1.2440     0.4970    -1.0360 hc         1 8P5       0.086700
     31 H10         -2.9590    -4.1870    -0.9990 ho         1 8P5       0.440000
     32 H11          2.4650    -1.7250     1.3130 h1         1 8P5       0.058700
     33 H12          2.4600    -0.0730     1.9620 h1         1 8P5       0.058700
     34 H13          3.1250    -0.8330    -0.9400 hc         1 8P5       0.057700
     35 H14          3.1380     0.8080    -0.2930 hc         1 8P5       0.057700
     36 H15          4.9630     0.1600     1.3160 hc         1 8P5       0.080700
     37 H16          4.9550    -1.4790     0.6650 hc         1 8P5       0.080700
     38 H17          5.6230    -0.5910    -1.5890 h1         1 8P5       0.112200
     39 H18          5.6310     1.0560    -0.9350 h1         1 8P5       0.112200
     40 H19          0.4080    -1.3280     0.2970 hn         1 8P5       0.316500
     41 H20         -2.0040     1.8730     1.6740 hc         1 8P5       0.125700
     42 H21         -2.9560     2.2080    -1.0580 h1         1 8P5       0.043700
     43 H22         -3.0150     3.8260     0.5300 ho         1 8P5       0.518000
     44 H23         -5.0430     0.8710     0.7400 h1         1 8P5       0.066700
     45 H24          9.9250     0.1110    -1.1040 hn         1 8P5       0.524400
@<TRIPOS>BOND
     1     1    22 1   
     2     1    23 1   
     3     2     3 1   
     4     2     4 1   
     5     2    22 1   
     6     2    24 1   
     7     3     5 1   
     8     3     7 1   
     9     3    25 1   
    10     4    26 1   
    11     5    10 1   
    12     5    27 1   
    13     5    28 1   
    14     6    18 2   
    15     6    45 1   
    16     7     8 1   
    17     7    19 1   
    18     7    29 1   
    19     8     9 1   
    20     8    19 1   
    21     8    30 1   
    22     9    15 2   
    23     9    16 1   
    24    10    31 1   
    25    11    12 1   
    26    11    16 1   
    27    11    32 1   
    28    11    33 1   
    29    12    13 1   
    30    12    34 1   
    31    12    35 1   
    32    13    14 1   
    33    13    36 1   
    34    13    37 1   
    35    14    17 1   
    36    14    38 1   
    37    14    39 1   
    38    16    40 1   
    39    17    18 2   
    40    19    20 1   
    41    19    41 1   
    42    20    21 1   
    43    20    22 1   
    44    20    42 1   
    45    21    43 1   
    46    22    44 1   
@<TRIPOS>SUBSTRUCTURE
     1 8P5         1 TEMP              0 ****  ****    0 ROOT
