@<TRIPOS>MOLECULE
8P5
   45    46     1     0     0
SMALL
bcc


@<TRIPOS>ATOM
      1 O3          -5.2850     1.7990    -1.1530 oh         1 8P5      -0.611800
      2 C4          -4.0530    -0.2600    -0.8790 c6         1 8P5       0.151100
      3 C5          -3.4060    -1.1530     0.1790 c6         1 8P5      -0.043700
      4 O4          -5.1550    -0.9260    -1.4390 oh         1 8P5      -0.570800
      5 C6          -2.7250    -2.3980    -0.3750 c3         1 8P5       0.157400
      6 N1           9.1280    -1.1830    -0.8860 n2         1 8P5      -0.206400
      7 C7          -2.4020    -0.3910     1.0190 cx         1 8P5      -0.080700
      8 C8          -1.2250     0.3120     0.3890 cx         1 8P5      -0.247700
      9 C9           0.0790     0.2470     1.1010 c          1 8P5       0.702100
     10 O6          -3.6720    -3.3210    -0.8570 oh         1 8P5      -0.571800
     11 C12          2.5070     0.1220     0.8450 c3         1 8P5       0.114000
     12 C13          3.5300     0.1760    -0.2770 c3         1 8P5      -0.094400
     13 C14          4.9460     0.0800     0.2780 c3         1 8P5      -0.083400
     14 C15          5.9470     0.1470    -0.8590 c3         1 8P5       0.137800
     15 O10          0.1560     0.2360     2.3250 o          1 8P5      -0.595100
     16 N11          1.1630     0.2030     0.3130 ns         1 8P5      -0.582900
     17 N16          7.3180     0.1340    -0.3000 n2         1 8P5      -0.066200
     18 N17          8.1650    -0.5960    -0.5750 n1         1 8P5       0.230000
     19 C1          -2.3430     1.0960     1.0270 cx         1 8P5      -0.067700
     20 C2          -3.2780     1.8970     0.1420 c6         1 8P5       0.169100
     21 O2          -3.6460     3.0560     0.8540 oh         1 8P5      -0.589800
     22 C3          -4.4910     1.0620    -0.2380 c6         1 8P5       0.065100
     23 H1          -6.1730     1.8860    -0.7990 ho         1 8P5       0.421000
     24 H2          -3.3070    -0.0400    -1.6630 h1         1 8P5       0.029700
     25 H3          -4.2040    -1.4730     0.8620 hc         1 8P5       0.091700
     26 H4          -5.6210    -0.2830    -1.9860 ho         1 8P5       0.414000
     27 H5          -2.0180    -2.0960    -1.1610 h1         1 8P5       0.009700
     28 H6          -2.1240    -2.8410     0.4310 h1         1 8P5       0.009700
     29 H8          -2.1740    -0.8700     1.9650 hc         1 8P5       0.106700
     30 H9          -1.1750     0.3410    -0.6950 hc         1 8P5       0.086700
     31 H10         -3.1960    -4.1080    -1.1370 ho         1 8P5       0.401000
     32 H11          2.6310    -0.8040     1.4150 h1         1 8P5       0.058700
     33 H12          2.6780     0.9470     1.5410 h1         1 8P5       0.058700
     34 H13          3.3520    -0.6430    -0.9800 hc         1 8P5       0.057700
     35 H14          3.4150     1.1090    -0.8370 hc         1 8P5       0.057700
     36 H15          5.1320     0.8960     0.9790 hc         1 8P5       0.080700
     37 H16          5.0700    -0.8580     0.8230 hc         1 8P5       0.080700
     38 H17          5.8440    -0.6740    -1.5670 h1         1 8P5       0.112200
     39 H18          5.8890     1.0990    -1.3870 h1         1 8P5       0.112200
     40 H19          1.0420     0.1930    -0.6870 hn         1 8P5       0.316500
     41 H20         -2.1030     1.5620     1.9760 hc         1 8P5       0.125700
     42 H21         -2.7590     2.1740    -0.7900 h1         1 8P5       0.043700
     43 H22         -4.2630     3.5550     0.3070 ho         1 8P5       0.419000
     44 H23         -5.0640     0.8350     0.6720 h1         1 8P5       0.066700
     45 H24          9.2980    -2.0550    -0.3730 hn         1 8P5       0.524400
@<TRIPOS>BOND
     1     1    22 1   
     2     1    23 1   
     3     2     3 1   
     4     2     4 1   
     5     2    22 1   
     6     2    24 1   
     7     3     5 1   
     8     3     7 1   
     9     3    25 1   
    10     4    26 1   
    11     5    10 1   
    12     5    27 1   
    13     5    28 1   
    14     6    18 2   
    15     6    45 1   
    16     7     8 1   
    17     7    19 1   
    18     7    29 1   
    19     8     9 1   
    20     8    19 1   
    21     8    30 1   
    22     9    15 2   
    23     9    16 1   
    24    10    31 1   
    25    11    12 1   
    26    11    16 1   
    27    11    32 1   
    28    11    33 1   
    29    12    13 1   
    30    12    34 1   
    31    12    35 1   
    32    13    14 1   
    33    13    36 1   
    34    13    37 1   
    35    14    17 1   
    36    14    38 1   
    37    14    39 1   
    38    16    40 1   
    39    17    18 2   
    40    19    20 1   
    41    19    41 1   
    42    20    21 1   
    43    20    22 1   
    44    20    42 1   
    45    21    43 1   
    46    22    44 1   
@<TRIPOS>SUBSTRUCTURE
     1 8P5         1 TEMP              0 ****  ****    0 ROOT
