@<TRIPOS>MOLECULE
8P6
   47    50     1     0     0
SMALL
bcc


@<TRIPOS>ATOM
      1 C1           3.5060    -1.2060    -0.5320 ca         1 8P6      -0.151000
      2 C10         -0.4740     0.1490     0.6740 c6         1 8P6       0.016500
      3 C11         -0.2940    -1.0890    -0.2350 c6         1 8P6      -0.046700
      4 C12          1.0440    -1.8670     0.0020 c6         1 8P6       0.016300
      5 C13         -1.7590     0.9190     0.3290 c6         1 8P6       0.304800
      6 C14         -3.0340     0.0430     0.3970 c6         1 8P6      -0.019800
      7 C15         -2.8210    -1.2050    -0.4590 c6         1 8P6      -0.069400
      8 C16         -1.5420    -1.9680    -0.1210 c6         1 8P6      -0.073400
      9 C17         -4.2040     0.8780    -0.0590 c2         1 8P6      -0.168200
     10 C18          1.1610    -3.0020    -1.0170 c3         1 8P6      -0.083100
     11 C19          1.1100    -2.4550     1.4200 c3         1 8P6      -0.083100
     12 C2           4.5030    -0.2090    -0.5660 ca         1 8P6      -0.109000
     13 C21         -3.3110    -0.3260     1.8620 c3         1 8P6      -0.083100
     14 C23         -5.0890     0.5670    -0.9970 c2         1 8P6      -0.205000
     15 C3           4.2560     1.1100    -0.2270 ca         1 8P6      -0.144000
     16 C4           2.9510     1.4230     0.1550 ca         1 8P6      -0.037200
     17 C5           1.9650     0.4260     0.1850 ca         1 8P6      -0.105800
     18 C6           2.2110    -0.9020    -0.1500 ca         1 8P6      -0.022300
     19 C8           1.0060     2.3340     0.7990 cc         1 8P6      -0.096100
     20 C9           0.7420     1.0110     0.5920 cd         1 8P6      -0.147400
     21 N25         -1.6370     1.4920    -0.9670 n1         1 8P6      -0.824300
     22 N7           2.3350     2.5800     0.5400 na         1 8P6      -0.174400
     23 H1           3.7840    -2.2140    -0.8100 ha         1 8P6       0.129000
     24 H2          -0.6000    -0.1940     1.7070 hc         1 8P6       0.063700
     25 H3          -0.2420    -0.7210    -1.2680 hc         1 8P6       0.063700
     26 H4          -1.8670     1.7520     1.0320 h1         1 8P6       0.059700
     27 H5          -3.6810    -1.8700    -0.3480 hc         1 8P6       0.048700
     28 H6          -2.7900    -0.9210    -1.5150 hc         1 8P6       0.048700
     29 H7          -1.4780    -2.8150    -0.8040 hc         1 8P6       0.043200
     30 H8          -1.6130    -2.3930     0.8830 hc         1 8P6       0.043200
     31 H9          -4.3270     1.8170     0.4770 ha         1 8P6       0.117000
     32 H10          1.1130    -2.6220    -2.0400 hc         1 8P6       0.036200
     33 H11          2.1020    -3.5410    -0.9040 hc         1 8P6       0.036200
     34 H12          0.3680    -3.7360    -0.8910 hc         1 8P6       0.036200
     35 H13          0.3260    -3.1960     1.5850 hc         1 8P6       0.036200
     36 H14          2.0670    -2.9560     1.5750 hc         1 8P6       0.036200
     37 H15          1.0160    -1.6860     2.1880 hc         1 8P6       0.036200
     38 H16          5.5030    -0.4920    -0.8690 ha         1 8P6       0.126000
     39 H17         -3.4120     0.5680     2.4800 hc         1 8P6       0.039033
     40 H18         -4.2440    -0.8860     1.9270 hc         1 8P6       0.039033
     41 H19         -2.5300    -0.9440     2.3040 hc         1 8P6       0.039033
     42 H20         -5.9120     1.2320    -1.2250 ha         1 8P6       0.114500
     43 H21         -5.0380    -0.3500    -1.5710 ha         1 8P6       0.114500
     44 H25          5.0410     1.8540    -0.2610 ha         1 8P6       0.132000
     45 H26          0.3580     3.1440     1.0970 h4         1 8P6       0.162000
     46 H29          2.7690     3.4850     0.6030 hn         1 8P6       0.299700
     47 C26         -1.5390     1.9460    -2.0330 c1         1 8P6       0.407800
@<TRIPOS>BOND
     1     1    12 ar  
     2     1    18 ar  
     3     1    23 1   
     4     2     3 1   
     5     2     5 1   
     6     2    20 1   
     7     2    24 1   
     8     3     4 1   
     9     3     8 1   
    10     3    25 1   
    11     4    10 1   
    12     4    11 1   
    13     4    18 1   
    14     5     6 1   
    15     5    21 1   
    16     5    26 1   
    17     6     7 1   
    18     6     9 1   
    19     6    13 1   
    20     7     8 1   
    21     7    27 1   
    22     7    28 1   
    23     8    29 1   
    24     8    30 1   
    25     9    14 2   
    26     9    31 1   
    27    10    32 1   
    28    10    33 1   
    29    10    34 1   
    30    11    35 1   
    31    11    36 1   
    32    11    37 1   
    33    12    15 ar  
    34    12    38 1   
    35    13    39 1   
    36    13    40 1   
    37    13    41 1   
    38    14    42 1   
    39    14    43 1   
    40    15    16 ar  
    41    15    44 1   
    42    16    17 ar  
    43    16    22 1   
    44    17    18 ar  
    45    17    20 1   
    46    19    20 2   
    47    19    22 1   
    48    19    45 1   
    49    21    47 3   
    50    22    46 1   
@<TRIPOS>SUBSTRUCTURE
     1 8P6         1 TEMP              0 ****  ****    0 ROOT
