@<TRIPOS>MOLECULE
8P6
   47    50     1     0     0
SMALL
No Charge or Current Charge


@<TRIPOS>ATOM
      1 C1           3.6510    -1.2480    -0.3640 ca         1 8P6      -0.133000
      2 C10         -0.4570     0.2040     0.5790 c6         1 8P6       0.016500
      3 C11         -0.2800    -1.0840    -0.3200 c6         1 8P6      -0.046700
      4 C12          1.0870    -1.8800    -0.0600 c6         1 8P6       0.016300
      5 C13         -1.7470     1.0140     0.1910 c6         1 8P6       0.304800
      6 C14         -3.0540     0.1260     0.2920 c6         1 8P6      -0.019800
      7 C15         -2.8560    -1.1620    -0.5740 c6         1 8P6      -0.069400
      8 C16         -1.5710    -1.9610    -0.2220 c6         1 8P6      -0.073400
      9 C17         -4.2850     0.9090    -0.2010 c2         1 8P6      -0.218200
     10 C18          1.2770    -3.0070    -1.1300 c3         1 8P6      -0.083100
     11 C19          1.1040    -2.5730     1.3380 c3         1 8P6      -0.083100
     12 C2           4.6620    -0.2480    -0.3410 ca         1 8P6      -0.091000
     13 C21         -3.3600    -0.2450     1.7820 c3         1 8P6      -0.083100
     14 C23         -5.5140     0.3890    -0.3720 c2         1 8P6      -0.305000
     15 C3           4.3450     1.1020    -0.0460 ca         1 8P6      -0.126000
     16 C4           3.0040     1.4010     0.2220 ca         1 8P6      -0.037200
     17 C5           2.0620     0.4300     0.1890 ca         1 8P6      -0.105800
     18 C6           2.2980    -0.9050    -0.1040 ca         1 8P6      -0.022300
     19 C8           0.9930     2.3800     0.7490 cc         1 8P6      -0.146100
     20 C9           0.8180     1.0190     0.5130 cd         1 8P6      -0.147400
     21 N25         -1.6120     1.6460    -1.1180 n1         1 8P6      -0.913500
     22 N7           2.3830     2.5970     0.5560 na         1 8P6      -0.224700
     23 H1           3.9350    -2.2750    -0.5750 ha         1 8P6       0.111000
     24 H2          -0.5630    -0.1210     1.6200 hc         1 8P6       0.063700
     25 H3          -0.2220    -0.7310    -1.3600 hc         1 8P6       0.063700
     26 H4          -1.8510     1.8390     0.9120 h1         1 8P6       0.059700
     27 H5          -3.7230    -1.8280    -0.4670 hc         1 8P6       0.048700
     28 H6          -2.8230    -0.8870    -1.6370 hc         1 8P6       0.048700
     29 H7          -1.5120    -2.8130    -0.9090 hc         1 8P6       0.043200
     30 H8          -1.6710    -2.3890     0.7830 hc         1 8P6       0.043200
     31 H9          -4.1260     1.9700    -0.4090 ha         1 8P6       0.167000
     32 H10          1.3210    -2.5870    -2.1430 hc         1 8P6       0.036200
     33 H11          2.1970    -3.5790    -0.9690 hc         1 8P6       0.036200
     34 H12          0.4650    -3.7410    -1.1100 hc         1 8P6       0.036200
     35 H13          0.3260    -3.3400     1.4290 hc         1 8P6       0.036200
     36 H14          2.0650    -3.0700     1.5200 hc         1 8P6       0.036200
     37 H15          0.9580    -1.8510     2.1490 hc         1 8P6       0.036200
     38 H16          5.6940    -0.5230    -0.5440 ha         1 8P6       0.108000
     39 H17         -3.5000     0.6560     2.3900 hc         1 8P6       0.039033
     40 H18         -4.2770    -0.8400     1.8650 hc         1 8P6       0.039033
     41 H19         -2.5650    -0.8320     2.2520 hc         1 8P6       0.039033
     42 H20         -6.3470     1.0020    -0.7190 ha         1 8P6       0.164500
     43 H21         -5.7380    -0.6590    -0.1700 ha         1 8P6       0.164500
     44 H25          5.1130     1.8700    -0.0210 ha         1 8P6       0.114000
     45 H26          0.2910     3.1640     1.0170 h4         1 8P6       0.212000
     46 H29          2.8570     3.4900     0.6480 hn         1 8P6       0.350000
     47 C26         -1.4520     2.1350    -2.1660 c1         1 8P6       0.497000
@<TRIPOS>BOND
     1     1    12 ar  
     2     1    18 ar  
     3     1    23 1   
     4     2     3 1   
     5     2     5 1   
     6     2    20 1   
     7     2    24 1   
     8     3     4 1   
     9     3     8 1   
    10     3    25 1   
    11     4    10 1   
    12     4    11 1   
    13     4    18 1   
    14     5     6 1   
    15     5    21 1   
    16     5    26 1   
    17     6     7 1   
    18     6     9 1   
    19     6    13 1   
    20     7     8 1   
    21     7    27 1   
    22     7    28 1   
    23     8    29 1   
    24     8    30 1   
    25     9    14 2   
    26     9    31 1   
    27    10    32 1   
    28    10    33 1   
    29    10    34 1   
    30    11    35 1   
    31    11    36 1   
    32    11    37 1   
    33    12    15 ar  
    34    12    38 1   
    35    13    39 1   
    36    13    40 1   
    37    13    41 1   
    38    14    42 1   
    39    14    43 1   
    40    15    16 ar  
    41    15    44 1   
    42    16    17 ar  
    43    16    22 1   
    44    17    18 ar  
    45    17    20 1   
    46    19    20 2   
    47    19    22 1   
    48    19    45 1   
    49    21    47 3   
    50    22    46 1   
@<TRIPOS>SUBSTRUCTURE
     1 8P6         1 TEMP              0 ****  ****    0 ROOT
