@<TRIPOS>MOLECULE
8P7
   18    19     1     0     0
SMALL
No Charge or Current Charge


@<TRIPOS>ATOM
      1 N1           1.1070    -1.0890    -0.0670 na         1 8P7      -0.319600
      2 C4          -1.3740    -1.4270    -0.0780 ca         1 8P7      -0.117000
      3 C5          -2.5910    -0.7150    -0.0440 ca         1 8P7      -0.094000
      4 C6          -2.5880     0.7000     0.0200 ca         1 8P7      -0.136000
      5 C7          -1.3680     1.4130     0.0490 ca         1 8P7      -0.049000
      6 C8          -0.1710     0.6830     0.0140 ca         1 8P7       0.070400
      7 C2           1.8940     0.0570    -0.0170 cc         1 8P7       0.418800
      8 C3          -0.1900    -0.6800    -0.0470 ca         1 8P7      -0.079200
      9 N2           1.1340     1.1700     0.0340 nd         1 8P7      -0.577100
     10 H1           1.4490    -2.0400    -0.1100 hn         1 8P7       0.354000
     11 H2          -1.3580    -2.5130    -0.1270 ha         1 8P7       0.115000
     12 H3          -3.5360    -1.2550    -0.0660 ha         1 8P7       0.111000
     13 H4          -3.5310     1.2430     0.0460 ha         1 8P7       0.113000
     14 H5          -1.3550     2.4990     0.0980 ha         1 8P7       0.128000
     15 H6           3.7730    -0.4360    -0.9310 hc         1 8P7       0.058367
     16 H7           3.8000     1.0580     0.0240 hc         1 8P7       0.058367
     17 H8           3.7760    -0.5160     0.8430 hc         1 8P7       0.058367
     18 C1           3.3940     0.0410    -0.0210 c3         1 8P7      -0.114400
@<TRIPOS>BOND
     1     1     7 1   
     2     1     8 1   
     3     1    10 1   
     4     2     3 ar  
     5     2     8 ar  
     6     2    11 1   
     7     3     4 ar  
     8     3    12 1   
     9     4     5 ar  
    10     4    13 1   
    11     5     6 ar  
    12     5    14 1   
    13     6     8 ar  
    14     6     9 1   
    15     7     9 2   
    16     7    18 1   
    17    15    18 1   
    18    16    18 1   
    19    17    18 1   
@<TRIPOS>SUBSTRUCTURE
     1 8P7         1 TEMP              0 ****  ****    0 ROOT
