@<TRIPOS>MOLECULE
8P7
   18    19     1     0     0
SMALL
bcc


@<TRIPOS>ATOM
      1 N1           1.1280    -1.0690    -0.0610 na         1 8P7      -0.269300
      2 C4          -1.3750    -1.4320    -0.0730 ca         1 8P7      -0.135000
      3 C5          -2.5540    -0.7050    -0.0420 ca         1 8P7      -0.112000
      4 C6          -2.5490     0.6960     0.0160 ca         1 8P7      -0.154000
      5 C7          -1.3640     1.4120     0.0450 ca         1 8P7      -0.067000
      6 C8          -0.1670     0.7000     0.0140 ca         1 8P7       0.070400
      7 C2           1.8720     0.0690    -0.0150 cc         1 8P7       0.418800
      8 C3          -0.1910    -0.7040    -0.0440 ca         1 8P7      -0.079200
      9 N2           1.1350     1.1460     0.0310 nd         1 8P7      -0.577100
     10 H1           1.4890    -2.0090    -0.1040 hn         1 8P7       0.303700
     11 H2          -1.3800    -2.5130    -0.1170 ha         1 8P7       0.133000
     12 H3          -3.4990    -1.2310    -0.0640 ha         1 8P7       0.129000
     13 H4          -3.4920     1.2260     0.0390 ha         1 8P7       0.131000
     14 H5          -1.3650     2.4940     0.0890 ha         1 8P7       0.146000
     15 H6           3.7330    -0.4180    -0.9390 hc         1 8P7       0.058367
     16 H7           3.7480     1.0460     0.0520 hc         1 8P7       0.058367
     17 H8           3.7400    -0.5490     0.8150 hc         1 8P7       0.058367
     18 C1           3.3560     0.0350    -0.0220 c3         1 8P7      -0.114400
@<TRIPOS>BOND
     1     1     7 1   
     2     1     8 1   
     3     1    10 1   
     4     2     3 ar  
     5     2     8 ar  
     6     2    11 1   
     7     3     4 ar  
     8     3    12 1   
     9     4     5 ar  
    10     4    13 1   
    11     5     6 ar  
    12     5    14 1   
    13     6     8 ar  
    14     6     9 1   
    15     7     9 2   
    16     7    18 1   
    17    15    18 1   
    18    16    18 1   
    19    17    18 1   
@<TRIPOS>SUBSTRUCTURE
     1 8P7         1 TEMP              0 ****  ****    0 ROOT
