@<TRIPOS>MOLECULE
8P9
   40    42     1     0     0
SMALL
No Charge or Current Charge


@<TRIPOS>ATOM
      1 CAM         -1.3330     3.9070     1.6880 c3         1 8P9       0.148900
      2 OAL         -0.9430     3.0710     0.5850 os         1 8P9      -0.347100
      3 CAB         -1.5340     1.8400     0.3400 ca         1 8P9       0.170100
      4 CAC         -2.5840     1.3460     1.1580 ca         1 8P9      -0.216000
      5 CAD         -3.1140     0.0910     0.8530 ca         1 8P9       0.125100
      6 OAG         -4.1200    -0.5570     1.5150 os         1 8P9      -0.116100
      7 NAH         -4.3170    -1.8380     0.8190 nc         1 8P9      -0.298700
      8 CAI         -3.4310    -1.8500    -0.1830 cd         1 8P9       0.406900
      9 CAJ         -3.3230    -3.0130    -1.1260 c3         1 8P9      -0.119400
     10 CAE         -2.6560    -0.6440    -0.1880 ca         1 8P9      -0.286900
     11 CAF         -1.6250    -0.2010    -1.0270 ca         1 8P9       0.045000
     12 CAA         -1.0470     1.0650    -0.7580 ca         1 8P9       0.167000
     13 NAK          0.0090     1.5700    -1.5340 nu         1 8P9      -0.865100
     14 SAN          1.3710     0.7460    -2.0640 sy         1 8P9       1.163600
     15 OAO          0.8760    -0.1980    -3.0690 o          1 8P9      -0.530500
     16 OAP          2.2860     1.8360    -2.4060 o          1 8P9      -0.530500
     17 CAQ          1.9660    -0.1260    -0.6220 ca         1 8P9      -0.330500
     18 CAV          2.0280    -1.5360    -0.6460 ca         1 8P9       0.036000
     19 CAU          2.4660    -2.2400     0.4860 ca         1 8P9       0.053000
     20 ClAY         2.5420    -3.9980     0.4530 cl         1 8P9      -0.189000
     21 CAT          2.8400    -1.5450     1.6450 ca         1 8P9      -0.015000
     22 CAS          2.7710    -0.1410     1.6750 ca         1 8P9      -0.219000
     23 CAR          2.3310     0.5790     0.5420 ca         1 8P9       0.241100
     24 OAW          2.2310     1.9560     0.5530 os         1 8P9      -0.341100
     25 CAX          2.4890     2.7420     1.7290 c3         1 8P9       0.155900
     26 H1          -2.3900     4.1920     1.6090 h1         1 8P9       0.048367
     27 H2          -1.1760     3.3900     2.6440 h1         1 8P9       0.048367
     28 H3          -0.7340     4.8260     1.6980 h1         1 8P9       0.048367
     29 H4          -2.9790     1.9020     2.0010 ha         1 8P9       0.144000
     30 H5          -3.5220    -2.6950    -2.1560 hc         1 8P9       0.062033
     31 H6          -2.3170    -3.4450    -1.0930 hc         1 8P9       0.062033
     32 H7          -4.0380    -3.8040    -0.8730 hc         1 8P9       0.062033
     33 H8          -1.2880    -0.8120    -1.8590 ha         1 8P9       0.151000
     34 H9           0.4030     2.4300    -1.1700 hn         1 8P9       0.503000
     35 H10          1.7390    -2.0950    -1.5340 ha         1 8P9       0.161000
     36 H11          3.1780    -2.0940     2.5210 ha         1 8P9       0.130000
     37 H12          3.0620     0.3680     2.5890 ha         1 8P9       0.123000
     38 H13          3.5260     2.6170     2.0640 h1         1 8P9       0.049367
     39 H14          2.3280     3.8060     1.5170 h1         1 8P9       0.049367
     40 H15          1.8150     2.4540     2.5460 h1         1 8P9       0.049367
@<TRIPOS>BOND
     1     1     2 1   
     2     1    26 1   
     3     1    27 1   
     4     1    28 1   
     5     2     3 1   
     6     3     4 ar  
     7     3    12 ar  
     8     4     5 ar  
     9     4    29 1   
    10     5     6 1   
    11     5    10 ar  
    12     6     7 1   
    13     7     8 2   
    14     8     9 1   
    15     8    10 1   
    16     9    30 1   
    17     9    31 1   
    18     9    32 1   
    19    10    11 ar  
    20    11    12 ar  
    21    11    33 1   
    22    12    13 1   
    23    13    14 1   
    24    13    34 1   
    25    14    15 2   
    26    14    16 2   
    27    14    17 1   
    28    17    18 ar  
    29    17    23 ar  
    30    18    19 ar  
    31    18    35 1   
    32    19    20 1   
    33    19    21 ar  
    34    21    22 ar  
    35    21    36 1   
    36    22    23 ar  
    37    22    37 1   
    38    23    24 1   
    39    24    25 1   
    40    25    38 1   
    41    25    39 1   
    42    25    40 1   
@<TRIPOS>SUBSTRUCTURE
     1 8P9         1 TEMP              0 ****  ****    0 ROOT
