@<TRIPOS>MOLECULE
8P9
   40    42     1     0     0
SMALL
bcc


@<TRIPOS>ATOM
      1 CAM         -0.4860     2.1010     2.4610 c3         1 8P9       0.125700
      2 OAL         -0.4310     1.7790     1.0830 os         1 8P9      -0.323900
      3 CAB         -1.3280     0.9300     0.5800 ca         1 8P9       0.170100
      4 CAC         -2.3810     0.3970     1.3080 ca         1 8P9      -0.234000
      5 CAD         -3.2240    -0.4620     0.6180 ca         1 8P9       0.125100
      6 OAG         -4.2990    -1.0910     1.1050 os         1 8P9      -0.017600
      7 NAH         -4.8710    -1.8380     0.0930 nc         1 8P9      -0.397200
      8 CAI         -4.1630    -1.6700    -0.9780 cd         1 8P9       0.406900
      9 CAJ         -4.5080    -2.3350    -2.2590 c3         1 8P9      -0.119400
     10 CAE         -3.0690    -0.7860    -0.7180 ca         1 8P9      -0.286900
     11 CAF         -2.0150    -0.2390    -1.4470 ca         1 8P9       0.027000
     12 CAA         -1.1460     0.6080    -0.7970 ca         1 8P9       0.028600
     13 NAK         -0.0560     1.1610    -1.5140 nu         1 8P9      -0.671500
     14 SAN          1.3210     0.2490    -1.6860 sy         1 8P9       1.305200
     15 OAO          0.8980    -1.0740    -2.1070 o          1 8P9      -0.601300
     16 OAP          2.2130     1.0190    -2.5300 o          1 8P9      -0.601300
     17 CAQ          2.0210     0.0790    -0.0660 ca         1 8P9      -0.330500
     18 CAV          2.0250    -1.1730     0.5270 ca         1 8P9       0.018000
     19 CAU          2.5500    -1.3130     1.8000 ca         1 8P9      -0.038600
     20 CLAY         2.5590    -2.8720     2.5510 cl         1 8P9      -0.097400
     21 CAT          3.0650    -0.2180     2.4720 ca         1 8P9      -0.033000
     22 CAS          3.0540     1.0340     1.8780 ca         1 8P9      -0.237000
     23 CAR          2.5250     1.2040     0.6020 ca         1 8P9       0.241100
     24 OAW          2.4430     2.3720    -0.0330 os         1 8P9      -0.317900
     25 CAX          2.9160     3.5440     0.6110 c3         1 8P9       0.132700
     26 H1          -1.4120     2.6200     2.7170 h1         1 8P9       0.048367
     27 H2          -0.3860     1.2110     3.0860 h1         1 8P9       0.048367
     28 H3           0.3520     2.7650     2.6550 h1         1 8P9       0.048367
     29 H4          -2.5480     0.6280     2.3510 ha         1 8P9       0.162000
     30 H5          -4.6780    -1.5910    -3.0380 hc         1 8P9       0.062033
     31 H6          -3.6880    -2.9730    -2.5890 hc         1 8P9       0.062033
     32 H7          -5.4040    -2.9440    -2.1590 hc         1 8P9       0.062033
     33 H8          -1.8750    -0.4580    -2.4960 ha         1 8P9       0.169000
     34 H9           0.1480     2.1390    -1.3370 hn         1 8P9       0.447800
     35 H10          1.6240    -2.0290     0.0030 ha         1 8P9       0.179000
     36 H11          3.4780    -0.3300     3.4650 ha         1 8P9       0.148000
     37 H12          3.4610     1.8700     2.4290 ha         1 8P9       0.141000
     38 H13          3.9830     3.4790     0.8310 h1         1 8P9       0.049367
     39 H14          2.7460     4.3610    -0.0840 h1         1 8P9       0.049367
     40 H15          2.3710     3.7450     1.5360 h1         1 8P9       0.049367
@<TRIPOS>BOND
     1     1     2 1   
     2     1    26 1   
     3     1    27 1   
     4     1    28 1   
     5     2     3 1   
     6     3     4 ar  
     7     3    12 ar  
     8     4     5 ar  
     9     4    29 1   
    10     5     6 1   
    11     5    10 ar  
    12     6     7 1   
    13     7     8 2   
    14     8     9 1   
    15     8    10 1   
    16     9    30 1   
    17     9    31 1   
    18     9    32 1   
    19    10    11 ar  
    20    11    12 ar  
    21    11    33 1   
    22    12    13 1   
    23    13    14 1   
    24    13    34 1   
    25    14    15 2   
    26    14    16 2   
    27    14    17 1   
    28    17    18 ar  
    29    17    23 ar  
    30    18    19 ar  
    31    18    35 1   
    32    19    20 1   
    33    19    21 ar  
    34    21    22 ar  
    35    21    36 1   
    36    22    23 ar  
    37    22    37 1   
    38    23    24 1   
    39    24    25 1   
    40    25    38 1   
    41    25    39 1   
    42    25    40 1   
@<TRIPOS>SUBSTRUCTURE
     1 8P9         1 TEMP              0 ****  ****    0 ROOT
