@<TRIPOS>MOLECULE
8PB
   18    18     1     0     0
SMALL
abcg2


@<TRIPOS>ATOM
      1 C01        -18.1790   -16.4080   -15.9140 c3         1 8PB       0.157100
      2 C03        -18.5740   -18.7920   -15.7140 c5         1 8PB       0.162800
      3 C04        -18.7100   -19.9640   -16.6970 c5         1 8PB      -0.119400
      4 C05        -18.4830   -19.3460   -18.0950 c5         1 8PB       0.167300
      5 C06        -17.9480   -17.9620   -17.7620 c5         1 8PB       0.161800
      6 N02        -18.6570   -17.6080   -16.5500 n3         1 8PB      -0.706600
      7 O07        -19.6750   -19.1990   -18.8380 oh         1 8PB      -0.643000
      8 H1         -18.7680   -16.1940   -15.0210 h1         1 8PB       0.029700
      9 H2         -17.1220   -16.4740   -15.6110 h1         1 8PB       0.029700
     10 H3         -18.2810   -15.5560   -16.5880 h1         1 8PB       0.029700
     11 H5         -17.6020   -18.8490   -15.1960 h1         1 8PB       0.035200
     12 H6         -19.6940   -20.4330   -16.6410 hc         1 8PB       0.049200
     13 H7         -17.9740   -20.7380   -16.4830 hc         1 8PB       0.049200
     14 H8         -17.7450   -19.9220   -18.6640 h1         1 8PB       0.033700
     15 H9         -16.8570   -18.0250   -17.6020 h1         1 8PB       0.045200
     16 H10        -18.1210   -17.2370   -18.5620 h1         1 8PB       0.045200
     17 H12        -20.0470   -20.0750   -18.9810 ho         1 8PB       0.437000
     18 H4         -19.3480   -18.7810   -14.9440 h1         1 8PB       0.035200
@<TRIPOS>BOND
     1     1     6 1   
     2     1     8 1   
     3     1     9 1   
     4     1    10 1   
     5     2     3 1   
     6     2     6 1   
     7     2    11 1   
     8     2    18 1   
     9     3     4 1   
    10     3    12 1   
    11     3    13 1   
    12     4     5 1   
    13     4     7 1   
    14     4    14 1   
    15     5     6 1   
    16     5    15 1   
    17     5    16 1   
    18     7    17 1   
@<TRIPOS>SUBSTRUCTURE
     1 8PB         1 TEMP              0 ****  ****    0 ROOT
