@<TRIPOS>MOLECULE
8PB
   18    18     1     0     0
SMALL
No Charge or Current Charge


@<TRIPOS>ATOM
      1 C01        -18.1610   -16.3620   -15.7930 c3         1 8PB       0.157100
      2 C03        -18.3980   -18.8520   -15.7140 c5         1 8PB       0.162800
      3 C04        -19.0230   -19.8510   -16.7140 c5         1 8PB      -0.119400
      4 C05        -18.4040   -19.3810   -18.0630 c5         1 8PB       0.167300
      5 C06        -18.1050   -17.8580   -17.8060 c5         1 8PB       0.161800
      6 N02        -18.6460   -17.5950   -16.4440 n3         1 8PB      -0.706600
      7 O07        -19.2950   -19.6100   -19.1600 oh         1 8PB      -0.643000
      8 H1         -18.6300   -16.2360   -14.8080 h1         1 8PB       0.029700
      9 H2         -17.0720   -16.3930   -15.6560 h1         1 8PB       0.029700
     10 H3         -18.4070   -15.4820   -16.4030 h1         1 8PB       0.029700
     11 H5         -17.3250   -19.0380   -15.5640 h1         1 8PB       0.035200
     12 H6         -20.1170   -19.7670   -16.7140 hc         1 8PB       0.049200
     13 H7         -18.7720   -20.8910   -16.4760 hc         1 8PB       0.049200
     14 H8         -17.4540   -19.9060   -18.2410 h1         1 8PB       0.033700
     15 H9         -17.0210   -17.6800   -17.8430 h1         1 8PB       0.045200
     16 H10        -18.5730   -17.2100   -18.5590 h1         1 8PB       0.045200
     17 H12        -19.4840   -20.5730   -19.1710 ho         1 8PB       0.437000
     18 H4         -18.8990   -18.8770   -14.7360 h1         1 8PB       0.035200
@<TRIPOS>BOND
     1     1     6 1   
     2     1     8 1   
     3     1     9 1   
     4     1    10 1   
     5     2     3 1   
     6     2     6 1   
     7     2    11 1   
     8     2    18 1   
     9     3     4 1   
    10     3    12 1   
    11     3    13 1   
    12     4     5 1   
    13     4     7 1   
    14     4    14 1   
    15     5     6 1   
    16     5    15 1   
    17     5    16 1   
    18     7    17 1   
@<TRIPOS>SUBSTRUCTURE
     1 8PB         1 TEMP              0 ****  ****    0 ROOT
