@<TRIPOS>MOLECULE
8PC
   36    38     1     0     0
SMALL
bcc


@<TRIPOS>ATOM
      1 CL1         -4.7870    -3.1230     0.2080 cl         1 8PC      -0.100400
      2 C17         -3.7580    -1.7340     0.1170 ca         1 8PC       0.001400
      3 C16         -4.3290    -0.4740     0.0280 ca         1 8PC      -0.086000
      4 C15         -3.5010     0.6330    -0.0390 ca         1 8PC      -0.003600
      5 CL2         -4.1890     2.2090    -0.1500 cl         1 8PC      -0.079400
      6 C14         -2.1140     0.4960    -0.0210 ca         1 8PC       0.132100
      7 C19         -1.5640    -0.7760     0.0640 ca         1 8PC      -0.181000
      8 C22         -2.3840    -1.8920     0.1350 ca         1 8PC      -0.086000
      9 O13         -1.3890     1.6390    -0.1040 os         1 8PC      -0.240200
     10 C2          -0.0210     1.5720     0.0610 ca         1 8PC      -0.014900
     11 C3           0.5420     1.4780     1.3200 ca         1 8PC      -0.094000
     12 C4           1.9210     1.4420     1.4580 ca         1 8PC      -0.139000
     13 C5           2.7380     1.5100     0.3340 ca         1 8PC      -0.032300
     14 C6           2.1590     1.6140    -0.9260 ca         1 8PC      -0.162000
     15 C1           0.7780     1.6410    -1.0790 ca         1 8PC       0.149100
     16 O22          0.2650     1.7310    -2.3180 oh         1 8PC      -0.490100
     17 C7           4.2380     1.4320     0.4630 c3         1 8PC      -0.082400
     18 C23          4.7220     0.0290     0.2050 ca         1 8PC       0.414600
     19 N24          4.4800    -0.8710     1.1550 nb         1 8PC      -0.671000
     20 C25          4.8610    -2.1250     0.9520 ca         1 8PC       0.407200
     21 C26          5.5000    -2.5550    -0.2020 ca         1 8PC      -0.248300
     22 C27          5.7550    -1.6180    -1.1910 ca         1 8PC      -0.088000
     23 C28          5.3620    -0.3050    -0.9840 ca         1 8PC      -0.239300
     24 H16         -5.4020    -0.3470     0.0150 ha         1 8PC       0.164000
     25 H19         -0.4910    -0.9120     0.0780 ha         1 8PC       0.158000
     26 H22         -1.9420    -2.8770     0.2010 ha         1 8PC       0.152000
     27 H3          -0.1010     1.4310     2.1900 ha         1 8PC       0.149000
     28 H4           2.3590     1.3650     2.4450 ha         1 8PC       0.147000
     29 H6           2.7840     1.6700    -1.8100 ha         1 8PC       0.149000
     30 HO22        -0.6900     1.8650    -2.2850 ho         1 8PC       0.444000
     31 H71          4.7090     2.1220    -0.2390 hc         1 8PC       0.065200
     32 H72          4.5390     1.7370     1.4670 hc         1 8PC       0.065200
     33 H25          4.6490    -2.8280     1.7500 h4         1 8PC       0.019100
     34 H26          5.7880    -3.5910    -0.3150 ha         1 8PC       0.143000
     35 H27          6.2560    -1.9020    -2.1070 ha         1 8PC       0.138000
     36 H28          5.5460     0.4520    -1.7350 ha         1 8PC       0.141000
@<TRIPOS>BOND
     1     1     2 1   
     2     2     3 ar  
     3     2     8 ar  
     4     3     4 ar  
     5     3    24 1   
     6     4     5 1   
     7     4     6 ar  
     8     6     7 ar  
     9     6     9 1   
    10     7     8 ar  
    11     7    25 1   
    12     8    26 1   
    13     9    10 1   
    14    10    11 ar  
    15    10    15 ar  
    16    11    12 ar  
    17    11    27 1   
    18    12    13 ar  
    19    12    28 1   
    20    13    14 ar  
    21    13    17 1   
    22    14    15 ar  
    23    14    29 1   
    24    15    16 1   
    25    16    30 1   
    26    17    18 1   
    27    17    31 1   
    28    17    32 1   
    29    18    19 ar  
    30    18    23 ar  
    31    19    20 ar  
    32    20    21 ar  
    33    20    33 1   
    34    21    22 ar  
    35    21    34 1   
    36    22    23 ar  
    37    22    35 1   
    38    23    36 1   
@<TRIPOS>SUBSTRUCTURE
     1 8PC         1 TEMP              0 ****  ****    0 ROOT
