@<TRIPOS>MOLECULE
8PC
   36    38     1     0     0
SMALL
No Charge or Current Charge


@<TRIPOS>ATOM
      1 Cl1         -5.1290    -2.9340     0.7620 cl         1 8PC      -0.192000
      2 C17         -4.0150    -1.6390     0.3440 ca         1 8PC       0.093000
      3 C16         -4.4190    -0.2990     0.4700 ca         1 8PC      -0.068000
      4 C15         -3.5300     0.7370     0.1360 ca         1 8PC       0.088000
      5 Cl2         -4.0590     2.4120     0.3010 cl         1 8PC      -0.171000
      6 C14         -2.2300     0.4330    -0.3190 ca         1 8PC       0.132100
      7 C19         -1.8320    -0.9130    -0.4570 ca         1 8PC      -0.163000
      8 C22         -2.7250    -1.9470    -0.1210 ca         1 8PC      -0.068000
      9 O13         -1.3670     1.4550    -0.6580 os         1 8PC      -0.240200
     10 C2          -0.0200     1.4340    -0.3540 ca         1 8PC      -0.014900
     11 C3           0.4400     0.8870     0.8610 ca         1 8PC      -0.076000
     12 C4           1.8150     0.8860     1.1540 ca         1 8PC      -0.121000
     13 C5           2.7390     1.4360     0.2450 ca         1 8PC      -0.032300
     14 C6           2.2730     1.9950    -0.9620 ca         1 8PC      -0.144000
     15 C1           0.9010     1.9980    -1.2580 ca         1 8PC       0.149100
     16 O22          0.4640     2.5450    -2.4290 oh         1 8PC      -0.529100
     17 C7           4.2270     1.4210     0.5680 c3         1 8PC      -0.082400
     18 C23          4.8330     0.0380     0.3830 ca         1 8PC       0.349300
     19 N24          5.2620    -0.5960     1.5010 nb         1 8PC      -0.671000
     20 C25          5.8020    -1.8300     1.3650 ca         1 8PC       0.341900
     21 C26          5.9350    -2.4720     0.1220 ca         1 8PC      -0.165000
     22 C27          5.4920    -1.8170    -1.0380 ca         1 8PC      -0.070000
     23 C28          4.9320    -0.5370    -0.8990 ca         1 8PC      -0.156000
     24 H16         -5.4180    -0.0650     0.8260 ha         1 8PC       0.146000
     25 H19         -0.8390    -1.1560    -0.8260 ha         1 8PC       0.140000
     26 H22         -2.4190    -2.9860    -0.2230 ha         1 8PC       0.134000
     27 H3          -0.2610     0.4670     1.5790 ha         1 8PC       0.131000
     28 H4           2.1640     0.4550     2.0900 ha         1 8PC       0.129000
     29 H6           2.9740     2.4260    -1.6720 ha         1 8PC       0.131000
     30 HO22        -0.5150     2.4580    -2.4390 ho         1 8PC       0.483000
     31 H71          4.7620     2.1350    -0.0680 hc         1 8PC       0.065200
     32 H72          4.3820     1.7740     1.5950 hc         1 8PC       0.065200
     33 H25          6.1380    -2.3160     2.2790 h4         1 8PC       0.019100
     34 H26          6.3750    -3.4640     0.0670 ha         1 8PC       0.125000
     35 H27          5.5800    -2.2870    -2.0160 ha         1 8PC       0.120000
     36 H28          4.5750     0.0050    -1.7700 ha         1 8PC       0.123000
@<TRIPOS>BOND
     1     1     2 1   
     2     2     3 ar  
     3     2     8 ar  
     4     3     4 ar  
     5     3    24 1   
     6     4     5 1   
     7     4     6 ar  
     8     6     7 ar  
     9     6     9 1   
    10     7     8 ar  
    11     7    25 1   
    12     8    26 1   
    13     9    10 1   
    14    10    11 ar  
    15    10    15 ar  
    16    11    12 ar  
    17    11    27 1   
    18    12    13 ar  
    19    12    28 1   
    20    13    14 ar  
    21    13    17 1   
    22    14    15 ar  
    23    14    29 1   
    24    15    16 1   
    25    16    30 1   
    26    17    18 1   
    27    17    31 1   
    28    17    32 1   
    29    18    19 ar  
    30    18    23 ar  
    31    19    20 ar  
    32    20    21 ar  
    33    20    33 1   
    34    21    22 ar  
    35    21    34 1   
    36    22    23 ar  
    37    22    35 1   
    38    23    36 1   
@<TRIPOS>SUBSTRUCTURE
     1 8PC         1 TEMP              0 ****  ****    0 ROOT
