@<TRIPOS>MOLECULE
8PD
   63    62     1     0     0
SMALL
No Charge or Current Charge


@<TRIPOS>ATOM
      1 O21         17.5850    -3.3560    59.5880 o          1 8PD      -0.725500
      2 C01         21.9510   -15.4810    48.5900 c3         1 8PD      -0.088100
      3 C02         20.6790   -14.7580    48.1050 c3         1 8PD      -0.075400
      4 C03         20.1600   -13.7070    49.1110 c3         1 8PD      -0.076400
      5 C04         18.8850   -12.9840    48.6250 c3         1 8PD      -0.074400
      6 C05         18.3660   -11.9330    49.6300 c3         1 8PD      -0.074400
      7 C06         17.0910   -11.2090    49.1440 c3         1 8PD      -0.075400
      8 C07         16.5720   -10.1580    50.1500 c3         1 8PD      -0.076400
      9 C08         15.2970    -9.4320    49.6590 c3         1 8PD      -0.071400
     10 C09         14.6990    -8.4320    50.6770 c3         1 8PD      -0.074400
     11 C10         15.6050    -7.2130    50.9830 c3         1 8PD      -0.073400
     12 C11         14.9420    -6.1320    51.8690 c3         1 8PD      -0.074400
     13 C12         14.6150    -6.5950    53.3080 c3         1 8PD      -0.074400
     14 C13         14.0330    -5.4670    54.1870 c3         1 8PD      -0.079400
     15 C14         13.7060    -5.9310    55.6260 c3         1 8PD      -0.065400
     16 C15         13.0440    -4.8520    56.5190 c3         1 8PD      -0.163400
     17 N17         14.5540    -3.7350    58.1000 ns         1 8PD      -0.463900
     18 C18         15.4640    -2.7150    58.6790 c3         1 8PD      -0.036300
     19 C19         16.3740    -3.3700    59.7680 c          1 8PD       0.728000
     20 O20         15.8390    -4.0420    60.6420 o          1 8PD      -0.725500
     21 C22         14.6680    -1.4860    59.2000 c3         1 8PD      -0.075400
     22 C23         15.5340    -0.2700    59.5980 c3         1 8PD       0.179600
     23 O24         16.2050    -0.5030    60.8380 oh         1 8PD      -0.636000
     24 O25         14.1880    -2.7560    56.0740 o          1 8PD      -0.660100
     25 H2          22.2800   -16.2150    47.8450 hc         1 8PD       0.030033
     26 H3          22.7660   -14.7650    48.7500 hc         1 8PD       0.030033
     27 H4          21.7620   -16.0090    49.5320 hc         1 8PD       0.030033
     28 H5          19.8950   -15.5030    47.9200 hc         1 8PD       0.034200
     29 H6          20.8900   -14.2710    47.1460 hc         1 8PD       0.034200
     30 H7          19.9520   -14.1990    50.0700 hc         1 8PD       0.038200
     31 H8          20.9470   -12.9660    49.2950 hc         1 8PD       0.038200
     32 H9          19.0930   -12.4930    47.6660 hc         1 8PD       0.034200
     33 H10         18.0970   -13.7260    48.4410 hc         1 8PD       0.034200
     34 H11         18.1570   -12.4240    50.5890 hc         1 8PD       0.039200
     35 H12         19.1530   -11.1910    49.8140 hc         1 8PD       0.039200
     36 H13         17.2990   -10.7170    48.1850 hc         1 8PD       0.032700
     37 H14         16.3040   -11.9510    48.9600 hc         1 8PD       0.032700
     38 H15         16.3610   -10.6490    51.1080 hc         1 8PD       0.041700
     39 H16         17.3660    -9.4240    50.3320 hc         1 8PD       0.041700
     40 H17         15.5150    -8.9060    48.7220 hc         1 8PD       0.031200
     41 H18         14.5320   -10.1830    49.4260 hc         1 8PD       0.031200
     42 H19         13.7420    -8.0690    50.2820 hc         1 8PD       0.037700
     43 H20         14.4710    -8.9680    51.6060 hc         1 8PD       0.037700
     44 H21         16.5280    -7.5500    51.4700 hc         1 8PD       0.036700
     45 H22         15.9020    -6.7480    50.0350 hc         1 8PD       0.036700
     46 H23         15.6170    -5.2690    51.9220 hc         1 8PD       0.040700
     47 H24         14.0230    -5.7800    51.3830 hc         1 8PD       0.040700
     48 H25         13.8950    -7.4220    53.2730 hc         1 8PD       0.034200
     49 H26         15.5280    -6.9830    53.7780 hc         1 8PD       0.034200
     50 H27         14.7520    -4.6400    54.2230 hc         1 8PD       0.049700
     51 H28         13.1200    -5.0790    53.7170 hc         1 8PD       0.049700
     52 H29         13.0290    -6.7930    55.5700 hc         1 8PD       0.036200
     53 H30         14.6240    -6.2860    56.1110 hc         1 8PD       0.036200
     54 H31         12.1570    -4.4660    56.0030 hc         1 8PD       0.049700
     55 H32         12.7430    -5.3470    57.4500 hc         1 8PD       0.049700
     56 H33         14.3240    -4.5410    58.6710 hn         1 8PD       0.332500
     57 H34         16.1280    -2.3720    57.8760 h1         1 8PD       0.057700
     58 H35         13.9860    -1.1540    58.4080 hc         1 8PD       0.035200
     59 H36         14.0350    -1.7820    60.0460 hc         1 8PD       0.035200
     60 H37         16.2590    -0.0590    58.8010 h1         1 8PD       0.000200
     61 H38         14.8820     0.6080    59.6950 h1         1 8PD       0.000200
     62 H39         16.7280     0.3040    61.0330 ho         1 8PD       0.421000
     63 C16         13.9850    -3.6820    56.8470 c          1 8PD       0.586100
@<TRIPOS>BOND
     1     1    19 1   
     2     2     3 1   
     3     2    25 1   
     4     2    26 1   
     5     2    27 1   
     6     3     4 1   
     7     3    28 1   
     8     3    29 1   
     9     4     5 1   
    10     4    30 1   
    11     4    31 1   
    12     5     6 1   
    13     5    32 1   
    14     5    33 1   
    15     6     7 1   
    16     6    34 1   
    17     6    35 1   
    18     7     8 1   
    19     7    36 1   
    20     7    37 1   
    21     8     9 1   
    22     8    38 1   
    23     8    39 1   
    24     9    10 1   
    25     9    40 1   
    26     9    41 1   
    27    10    11 1   
    28    10    42 1   
    29    10    43 1   
    30    11    12 1   
    31    11    44 1   
    32    11    45 1   
    33    12    13 1   
    34    12    46 1   
    35    12    47 1   
    36    13    14 1   
    37    13    48 1   
    38    13    49 1   
    39    14    15 1   
    40    14    50 1   
    41    14    51 1   
    42    15    16 1   
    43    15    52 1   
    44    15    53 1   
    45    16    54 1   
    46    16    55 1   
    47    16    63 1   
    48    17    18 1   
    49    17    56 1   
    50    17    63 1   
    51    18    19 1   
    52    18    21 1   
    53    18    57 1   
    54    19    20 1   
    55    21    22 1   
    56    21    58 1   
    57    21    59 1   
    58    22    23 1   
    59    22    60 1   
    60    22    61 1   
    61    23    62 1   
    62    24    63 2   
@<TRIPOS>SUBSTRUCTURE
     1 8PD         1 TEMP              0 ****  ****    0 ROOT
