@<TRIPOS>MOLECULE
8PD
   63    62     1     0     0
SMALL
abcg2


@<TRIPOS>ATOM
      1 O21         17.5330    -2.1670    57.3740 o          1 8PD      -0.725500
      2 C01         21.6830   -15.5960    48.5500 c3         1 8PD      -0.088100
      3 C02         20.4970   -14.7410    48.1260 c3         1 8PD      -0.075400
      4 C03         20.0620   -13.7480    49.1980 c3         1 8PD      -0.076400
      5 C04         18.8790   -12.8880    48.7730 c3         1 8PD      -0.074400
      6 C05         18.4350   -11.8920    49.8370 c3         1 8PD      -0.074400
      7 C06         17.2520   -11.0390    49.3950 c3         1 8PD      -0.075400
      8 C07         16.7820   -10.0420    50.4470 c3         1 8PD      -0.076400
      9 C08         15.6030    -9.2010    49.9690 c3         1 8PD      -0.071400
     10 C09         15.0190    -8.2640    51.0220 c3         1 8PD      -0.074400
     11 C10         15.9760    -7.1730    51.4960 c3         1 8PD      -0.073400
     12 C11         15.2870    -6.0640    52.2890 c3         1 8PD      -0.074400
     13 C12         14.6970    -6.5170    53.6200 c3         1 8PD      -0.074400
     14 C13         13.9700    -5.4000    54.3600 c3         1 8PD      -0.079400
     15 C14         13.3890    -5.8640    55.6900 c3         1 8PD      -0.065400
     16 C15         12.5250    -4.8130    56.3860 c3         1 8PD      -0.163400
     17 N17         14.4000    -3.6230    57.3390 ns         1 8PD      -0.463900
     18 C18         15.2140    -2.5150    57.8000 c3         1 8PD      -0.036300
     19 C19         16.6920    -2.9750    57.8010 c          1 8PD       0.728000
     20 O20         16.8940    -4.1310    58.2290 o          1 8PD      -0.725500
     21 C22         14.7320    -2.0570    59.1840 c3         1 8PD      -0.075400
     22 C23         15.5130    -0.9160    59.8090 c3         1 8PD       0.179600
     23 O24         16.6870    -1.4160    60.4140 oh         1 8PD      -0.636000
     24 O25         12.7030    -2.4200    56.4650 o          1 8PD      -0.660100
     25 H2          21.9740   -16.2950    47.7650 hc         1 8PD       0.030033
     26 H3          22.5530   -14.9780    48.7800 hc         1 8PD       0.030033
     27 H4          21.4510   -16.1800    49.4430 hc         1 8PD       0.030033
     28 H5          19.6520   -15.3890    47.8720 hc         1 8PD       0.034200
     29 H6          20.7470   -14.1980    47.2100 hc         1 8PD       0.034200
     30 H7          19.8070   -14.2920    50.1140 hc         1 8PD       0.038200
     31 H8          20.9090   -13.1020    49.4560 hc         1 8PD       0.038200
     32 H9          19.1380   -12.3470    47.8560 hc         1 8PD       0.034200
     33 H10         18.0350   -13.5370    48.5130 hc         1 8PD       0.034200
     34 H11         18.1710   -12.4300    50.7540 hc         1 8PD       0.039200
     35 H12         19.2760   -11.2410    50.0990 hc         1 8PD       0.039200
     36 H13         17.5200   -10.4990    48.4800 hc         1 8PD       0.032700
     37 H14         16.4160   -11.6930    49.1230 hc         1 8PD       0.032700
     38 H15         16.4970   -10.5800    51.3580 hc         1 8PD       0.041700
     39 H16         17.6190    -9.3940    50.7280 hc         1 8PD       0.041700
     40 H17         15.9080    -8.6170    49.0940 hc         1 8PD       0.031200
     41 H18         14.8120    -9.8730    49.6210 hc         1 8PD       0.031200
     42 H19         14.1260    -7.7850    50.6060 hc         1 8PD       0.037700
     43 H20         14.6720    -8.8570    51.8740 hc         1 8PD       0.037700
     44 H21         16.7780    -7.6070    52.1020 hc         1 8PD       0.036700
     45 H22         16.4640    -6.7290    50.6220 hc         1 8PD       0.036700
     46 H23         16.0030    -5.2570    52.4760 hc         1 8PD       0.040700
     47 H24         14.4930    -5.6290    51.6720 hc         1 8PD       0.040700
     48 H25         13.9980    -7.3440    53.4620 hc         1 8PD       0.034200
     49 H26         15.4980    -6.9130    54.2540 hc         1 8PD       0.034200
     50 H27         14.6570    -4.5640    54.5230 hc         1 8PD       0.049700
     51 H28         13.1620    -5.0150    53.7270 hc         1 8PD       0.049700
     52 H29         12.7660    -6.7470    55.5200 hc         1 8PD       0.036200
     53 H30         14.1970    -6.2020    56.3460 hc         1 8PD       0.036200
     54 H31         11.6670    -4.5720    55.7570 hc         1 8PD       0.049700
     55 H32         12.1250    -5.2310    57.3150 hc         1 8PD       0.049700
     56 H33         14.7650    -4.5360    57.5660 hn         1 8PD       0.332500
     57 H34         15.0990    -1.6850    57.1000 h1         1 8PD       0.057700
     58 H35         13.6910    -1.7390    59.0860 hc         1 8PD       0.035200
     59 H36         14.7300    -2.9100    59.8700 hc         1 8PD       0.035200
     60 H37         15.7400    -0.1640    59.0410 h1         1 8PD       0.000200
     61 H38         14.8750    -0.4200    60.5510 h1         1 8PD       0.000200
     62 H39         17.2500    -0.6710    60.6410 ho         1 8PD       0.421000
     63 C16         13.2170    -3.5040    56.7240 c          1 8PD       0.586100
@<TRIPOS>BOND
     1     1    19 1   
     2     2     3 1   
     3     2    25 1   
     4     2    26 1   
     5     2    27 1   
     6     3     4 1   
     7     3    28 1   
     8     3    29 1   
     9     4     5 1   
    10     4    30 1   
    11     4    31 1   
    12     5     6 1   
    13     5    32 1   
    14     5    33 1   
    15     6     7 1   
    16     6    34 1   
    17     6    35 1   
    18     7     8 1   
    19     7    36 1   
    20     7    37 1   
    21     8     9 1   
    22     8    38 1   
    23     8    39 1   
    24     9    10 1   
    25     9    40 1   
    26     9    41 1   
    27    10    11 1   
    28    10    42 1   
    29    10    43 1   
    30    11    12 1   
    31    11    44 1   
    32    11    45 1   
    33    12    13 1   
    34    12    46 1   
    35    12    47 1   
    36    13    14 1   
    37    13    48 1   
    38    13    49 1   
    39    14    15 1   
    40    14    50 1   
    41    14    51 1   
    42    15    16 1   
    43    15    52 1   
    44    15    53 1   
    45    16    54 1   
    46    16    55 1   
    47    16    63 1   
    48    17    18 1   
    49    17    56 1   
    50    17    63 1   
    51    18    19 1   
    52    18    21 1   
    53    18    57 1   
    54    19    20 1   
    55    21    22 1   
    56    21    58 1   
    57    21    59 1   
    58    22    23 1   
    59    22    60 1   
    60    22    61 1   
    61    23    62 1   
    62    24    63 2   
@<TRIPOS>SUBSTRUCTURE
     1 8PD         1 TEMP              0 ****  ****    0 ROOT
