@<TRIPOS>MOLECULE
8PE
  120   119     1     0     0
SMALL
bcc


@<TRIPOS>ATOM
      1 P           -0.8630     5.4960     0.9360 p5         1 8PE       1.393800
      2 N            1.7500     2.1900     2.1140 n8         1 8PE      -0.893800
      3 O11         -2.2200     4.7750     0.3540 os         1 8PE      -0.545200
      4 O12          0.0610     5.8600    -0.1870 o          1 8PE      -0.830500
      5 O13         -0.3580     4.1400     1.7040 os         1 8PE      -0.574200
      6 O14         -1.2330     6.5450     1.9420 o          1 8PE      -0.830500
      7 C11          0.6190     4.2750     2.7250 c3         1 8PE       0.196400
      8 C12          1.0510     2.8980     3.1740 c3         1 8PE       0.149800
      9 C1          -3.0070     5.4860    -0.5710 c3         1 8PE       0.193400
     10 C2          -3.1930     4.7220    -1.8710 c3         1 8PE       0.132100
     11 C3          -1.9390     4.5450    -2.6950 c3         1 8PE       0.152400
     12 O31         -1.0410     3.6660    -2.0320 os         1 8PE      -0.387900
     13 O32          0.6690     4.4100    -3.2570 o          1 8PE      -0.567000
     14 C31          0.2440     3.7310    -2.3530 c          1 8PE       0.677100
     15 C32          1.0860     2.8600    -1.4660 c3         1 8PE      -0.142400
     16 C33          2.4370     2.4970    -2.0630 c3         1 8PE      -0.060400
     17 C34          3.2680     1.6410    -1.1150 c3         1 8PE      -0.081400
     18 C35          4.6420     1.2960    -1.6760 c3         1 8PE      -0.071400
     19 C36          5.4910     0.4760    -0.7140 c3         1 8PE      -0.075400
     20 C37          6.8660     0.1260    -1.2690 c3         1 8PE      -0.074400
     21 C38          7.7230    -0.6730    -0.2950 c3         1 8PE      -0.074400
     22 C39          9.0990    -1.0240    -0.8480 c3         1 8PE      -0.074400
     23 C3A          9.9590    -1.8140     0.1310 c3         1 8PE      -0.074400
     24 C3B         11.3340    -2.1640    -0.4230 c3         1 8PE      -0.074400
     25 C3C         12.1970    -2.9510     0.5550 c3         1 8PE      -0.074400
     26 C3D         13.5720    -3.2990    -0.0010 c3         1 8PE      -0.074400
     27 C3E         14.4370    -4.0880     0.9740 c3         1 8PE      -0.074400
     28 C3F         15.8100    -4.4360     0.4120 c3         1 8PE      -0.074400
     29 C3G         16.6770    -5.2310     1.3800 c3         1 8PE      -0.075400
     30 C3H         18.0480    -5.5800     0.8120 c3         1 8PE      -0.075400
     31 C3I         18.9060    -6.3850     1.7780 c3         1 8PE      -0.088100
     32 O21         -3.7350     3.4180    -1.6320 os         1 8PE      -0.394900
     33 O22         -5.8340     4.1870    -1.5630 o          1 8PE      -0.563000
     34 C21         -5.0510     3.2740    -1.4940 c          1 8PE       0.650100
     35 C22         -5.4160     1.8350    -1.2480 c3         1 8PE      -0.141400
     36 C23         -6.9030     1.6070    -1.0340 c3         1 8PE      -0.066400
     37 C24         -7.2190     0.1370    -0.7860 c3         1 8PE      -0.076400
     38 C25         -8.7030    -0.1230    -0.5640 c3         1 8PE      -0.074400
     39 C26         -9.0230    -1.5910    -0.3140 c3         1 8PE      -0.074400
     40 C27        -10.5060    -1.8570    -0.0880 c3         1 8PE      -0.074400
     41 C28        -10.8220    -3.3260     0.1620 c3         1 8PE      -0.074400
     42 C29        -12.3040    -3.5940     0.3920 c3         1 8PE      -0.074400
     43 C2A        -12.6170    -5.0640     0.6440 c3         1 8PE      -0.074400
     44 C2B        -14.0980    -5.3340     0.8790 c3         1 8PE      -0.074400
     45 C2C        -14.4090    -6.8040     1.1320 c3         1 8PE      -0.075400
     46 C2D        -15.8880    -7.0770     1.3750 c3         1 8PE      -0.075400
     47 C2E        -16.1850    -8.5470     1.6310 c3         1 8PE      -0.088100
     48 HN           2.0570     1.2870     2.4490 hn         1 8PE       0.334300
     49 HNA          1.1140     2.0010     1.3510 hn         1 8PE       0.334300
     50 H11          1.4940     4.8250     2.3600 h1         1 8PE       0.029700
     51 H11A         0.2120     4.8250     3.5790 h1         1 8PE       0.029700
     52 H12          0.1760     2.3620     3.5700 h1         1 8PE       0.016200
     53 H12A         1.7360     3.0310     4.0140 h1         1 8PE       0.016200
     54 H1          -3.9870     5.6840    -0.1270 h1         1 8PE       0.033200
     55 H1A         -2.5850     6.4620    -0.8340 h1         1 8PE       0.033200
     56 H2          -3.8800     5.3110    -2.4870 h1         1 8PE       0.048700
     57 H3          -2.1940     4.1360    -3.6770 h1         1 8PE       0.050700
     58 H3A         -1.4900     5.5270    -2.8510 h1         1 8PE       0.050700
     59 H32          1.2210     3.4170    -0.5340 hc         1 8PE       0.086700
     60 H32A         0.5250     1.9610    -1.1970 hc         1 8PE       0.086700
     61 H33          2.2960     1.9640    -3.0080 hc         1 8PE       0.043200
     62 H33A         2.9890     3.4090    -2.3050 hc         1 8PE       0.043200
     63 H34          3.3790     2.1590    -0.1580 hc         1 8PE       0.044700
     64 H34A         2.7260     0.7160    -0.8880 hc         1 8PE       0.044700
     65 H35          4.5260     0.7490    -2.6180 hc         1 8PE       0.034200
     66 H35A         5.1720     2.2210    -1.9280 hc         1 8PE       0.034200
     67 H36          5.6090     1.0290     0.2250 hc         1 8PE       0.037200
     68 H36A         4.9590    -0.4460    -0.4530 hc         1 8PE       0.037200
     69 H37          6.7490    -0.4400    -2.2000 hc         1 8PE       0.034700
     70 H37A         7.3920     1.0480    -1.5420 hc         1 8PE       0.034700
     71 H38          7.8400    -0.1050     0.6340 hc         1 8PE       0.036700
     72 H38A         7.1970    -1.5940    -0.0190 hc         1 8PE       0.036700
     73 H39          8.9820    -1.5980    -1.7740 hc         1 8PE       0.035700
     74 H39A         9.6220    -0.1030    -1.1290 hc         1 8PE       0.035700
     75 H3AA        10.0750    -1.2380     1.0560 hc         1 8PE       0.036700
     76 H3AB         9.4360    -2.7340     0.4130 hc         1 8PE       0.036700
     77 H3B         11.2180    -2.7400    -1.3470 hc         1 8PE       0.036200
     78 H3BA        11.8560    -1.2430    -0.7070 hc         1 8PE       0.036200
     79 H3C         12.3140    -2.3750     1.4800 hc         1 8PE       0.037200
     80 H3CA        11.6760    -3.8720     0.8400 hc         1 8PE       0.037200
     81 H3D         13.4540    -3.8730    -0.9260 hc         1 8PE       0.036200
     82 H3DA        14.0930    -2.3770    -0.2830 hc         1 8PE       0.036200
     83 H3E         14.5580    -3.5150     1.8990 hc         1 8PE       0.037200
     84 H3EA        13.9170    -5.0100     1.2570 hc         1 8PE       0.037200
     85 H3F         15.6880    -5.0050    -0.5160 hc         1 8PE       0.036200
     86 H3FA        16.3310    -3.5140     0.1310 hc         1 8PE       0.036200
     87 H3G         16.8030    -4.6620     2.3080 hc         1 8PE       0.036700
     88 H3GA        16.1570    -6.1530     1.6610 hc         1 8PE       0.036700
     89 H3H         17.9190    -6.1420    -0.1190 hc         1 8PE       0.036200
     90 H3HA        18.5700    -4.6580     0.5360 hc         1 8PE       0.036200
     91 H3I         19.0840    -5.8330     2.7030 hc         1 8PE       0.030367
     92 H3IA        18.4190    -7.3240     2.0460 hc         1 8PE       0.030367
     93 H3IB        19.8770    -6.6270     1.3460 hc         1 8PE       0.030367
     94 H22         -5.0570     1.2440    -2.0970 hc         1 8PE       0.071700
     95 H22A        -4.8440     1.4820    -0.3850 hc         1 8PE       0.071700
     96 H23         -7.2520     2.2010    -0.1850 hc         1 8PE       0.050700
     97 H23A        -7.4630     1.9560    -1.9050 hc         1 8PE       0.050700
     98 H24         -6.8690    -0.4600    -1.6350 hc         1 8PE       0.036700
     99 H24A        -6.6540    -0.2150     0.0850 hc         1 8PE       0.036700
    100 H25         -9.0530     0.4750     0.2840 hc         1 8PE       0.038200
    101 H25A        -9.2680     0.2280    -1.4350 hc         1 8PE       0.038200
    102 H26         -8.6730    -2.1880    -1.1640 hc         1 8PE       0.036200
    103 H26A        -8.4540    -1.9420     0.5550 hc         1 8PE       0.036200
    104 H27        -10.8550    -1.2600     0.7610 hc         1 8PE       0.036700
    105 H27A       -11.0740    -1.5060    -0.9570 hc         1 8PE       0.036700
    106 H28        -10.4730    -3.9220    -0.6880 hc         1 8PE       0.036700
    107 H28A       -10.2510    -3.6760     1.0300 hc         1 8PE       0.036700
    108 H29        -12.6530    -2.9980     1.2420 hc         1 8PE       0.036700
    109 H29A       -12.8750    -3.2450    -0.4750 hc         1 8PE       0.036700
    110 H2A        -12.2710    -5.6600    -0.2080 hc         1 8PE       0.036200
    111 H2AA       -12.0420    -5.4130     1.5090 hc         1 8PE       0.036200
    112 H2B        -14.4440    -4.7380     1.7310 hc         1 8PE       0.036200
    113 H2BA       -14.6730    -4.9860     0.0140 hc         1 8PE       0.036200
    114 H2C        -14.0650    -7.4000     0.2800 hc         1 8PE       0.036700
    115 H2CA       -13.8300    -7.1530     1.9950 hc         1 8PE       0.036700
    116 H2D        -16.2300    -6.4790     2.2260 hc         1 8PE       0.036200
    117 H2DA       -16.4660    -6.7300     0.5120 hc         1 8PE       0.036200
    118 H2E        -15.8920    -9.1640     0.7800 hc         1 8PE       0.030033
    119 H2EA       -15.6380    -8.9120     2.5030 hc         1 8PE       0.030033
    120 H2EB       -17.2470    -8.7170     1.8120 hc         1 8PE       0.030033
@<TRIPOS>BOND
     1     1     3 1   
     2     1     4 1   
     3     1     5 1   
     4     1     6 1   
     5     2     8 1   
     6     2    48 1   
     7     2    49 1   
     8     3     9 1   
     9     5     7 1   
    10     7     8 1   
    11     7    50 1   
    12     7    51 1   
    13     8    52 1   
    14     8    53 1   
    15     9    10 1   
    16     9    54 1   
    17     9    55 1   
    18    10    11 1   
    19    10    32 1   
    20    10    56 1   
    21    11    12 1   
    22    11    57 1   
    23    11    58 1   
    24    12    14 1   
    25    13    14 2   
    26    14    15 1   
    27    15    16 1   
    28    15    59 1   
    29    15    60 1   
    30    16    17 1   
    31    16    61 1   
    32    16    62 1   
    33    17    18 1   
    34    17    63 1   
    35    17    64 1   
    36    18    19 1   
    37    18    65 1   
    38    18    66 1   
    39    19    20 1   
    40    19    67 1   
    41    19    68 1   
    42    20    21 1   
    43    20    69 1   
    44    20    70 1   
    45    21    22 1   
    46    21    71 1   
    47    21    72 1   
    48    22    23 1   
    49    22    73 1   
    50    22    74 1   
    51    23    24 1   
    52    23    75 1   
    53    23    76 1   
    54    24    25 1   
    55    24    77 1   
    56    24    78 1   
    57    25    26 1   
    58    25    79 1   
    59    25    80 1   
    60    26    27 1   
    61    26    81 1   
    62    26    82 1   
    63    27    28 1   
    64    27    83 1   
    65    27    84 1   
    66    28    29 1   
    67    28    85 1   
    68    28    86 1   
    69    29    30 1   
    70    29    87 1   
    71    29    88 1   
    72    30    31 1   
    73    30    89 1   
    74    30    90 1   
    75    31    91 1   
    76    31    92 1   
    77    31    93 1   
    78    32    34 1   
    79    33    34 2   
    80    34    35 1   
    81    35    36 1   
    82    35    94 1   
    83    35    95 1   
    84    36    37 1   
    85    36    96 1   
    86    36    97 1   
    87    37    38 1   
    88    37    98 1   
    89    37    99 1   
    90    38    39 1   
    91    38   100 1   
    92    38   101 1   
    93    39    40 1   
    94    39   102 1   
    95    39   103 1   
    96    40    41 1   
    97    40   104 1   
    98    40   105 1   
    99    41    42 1   
   100    41   106 1   
   101    41   107 1   
   102    42    43 1   
   103    42   108 1   
   104    42   109 1   
   105    43    44 1   
   106    43   110 1   
   107    43   111 1   
   108    44    45 1   
   109    44   112 1   
   110    44   113 1   
   111    45    46 1   
   112    45   114 1   
   113    45   115 1   
   114    46    47 1   
   115    46   116 1   
   116    46   117 1   
   117    47   118 1   
   118    47   119 1   
   119    47   120 1   
@<TRIPOS>SUBSTRUCTURE
     1 8PE         1 TEMP              0 ****  ****    0 ROOT
