@<TRIPOS>MOLECULE
8PE
  120   119     1     0     0
SMALL
No Charge or Current Charge


@<TRIPOS>ATOM
      1 P           -3.3030     6.4210     1.1130 p5         1 8PE       1.393800
      2 N           -2.4650     2.7630     0.1610 n8         1 8PE      -1.004200
      3 O11         -3.9570     5.6620    -0.1560 os         1 8PE      -0.568400
      4 O12         -2.8150     7.7830     0.7480 o          1 8PE      -0.830500
      5 O13         -2.0520     5.4520     1.4240 os         1 8PE      -0.597400
      6 O14         -4.2510     6.4790     2.2640 o          1 8PE      -0.830500
      7 C11         -2.2040     4.2510     2.2100 c3         1 8PE       0.219600
      8 C12         -3.0480     3.1710     1.4610 c3         1 8PE       0.149800
      9 C1          -4.0600     6.2690    -1.4600 c3         1 8PE       0.216600
     10 C2          -2.9530     5.7860    -2.4520 c3         1 8PE       0.155300
     11 C3          -1.4960     6.2120    -2.1280 c3         1 8PE       0.175600
     12 O31         -0.8660     5.2750    -1.2340 os         1 8PE      -0.411100
     13 O32          0.9580     6.6510    -0.9980 o          1 8PE      -0.518000
     14 C31          0.3740     5.6020    -0.7510 c          1 8PE       0.628100
     15 C32          0.9780     4.4920     0.1100 c3         1 8PE      -0.142400
     16 C33          2.0210     3.6690    -0.6800 c3         1 8PE      -0.060400
     17 C34          2.7740     2.6440     0.1960 c3         1 8PE      -0.081400
     18 C35          3.8520     1.8610    -0.5860 c3         1 8PE      -0.071400
     19 C36          4.6760     0.9070     0.3060 c3         1 8PE      -0.075400
     20 C37          5.7880     0.1670    -0.4710 c3         1 8PE      -0.074400
     21 C38          6.6690    -0.7230     0.4330 c3         1 8PE      -0.074400
     22 C39          7.8070    -1.4270    -0.3400 c3         1 8PE      -0.074400
     23 C3A          8.7350    -2.2590     0.5730 c3         1 8PE      -0.074400
     24 C3B          9.8870    -2.9410    -0.1990 c3         1 8PE      -0.074400
     25 C3C         10.8530    -3.7240     0.7190 c3         1 8PE      -0.074400
     26 C3D         12.0100    -4.3950    -0.0540 c3         1 8PE      -0.074400
     27 C3E         13.0000    -5.1440     0.8670 c3         1 8PE      -0.074400
     28 C3F         14.1590    -5.8130     0.0950 c3         1 8PE      -0.074400
     29 C3G         15.1630    -6.5410     1.0190 c3         1 8PE      -0.075400
     30 C3H         16.3220    -7.2080     0.2450 c3         1 8PE      -0.075400
     31 C3I         17.3340    -7.9210     1.1640 c3         1 8PE      -0.088100
     32 O21         -3.0300     4.3470    -2.6220 os         1 8PE      -0.418100
     33 O22         -4.8560     4.4920    -4.0120 o          1 8PE      -0.514000
     34 C21         -4.0680     3.8260    -3.3520 c          1 8PE       0.601100
     35 C22         -4.1240     2.2990    -3.2700 c3         1 8PE      -0.141400
     36 C23         -5.2200     1.8510    -2.2720 c3         1 8PE      -0.066400
     37 C24         -5.4050     0.3200    -2.1980 c3         1 8PE      -0.076400
     38 C25         -6.5060    -0.0940    -1.1960 c3         1 8PE      -0.074400
     39 C26         -6.7870    -1.6130    -1.1800 c3         1 8PE      -0.074400
     40 C27         -7.8980    -2.0010    -0.1790 c3         1 8PE      -0.074400
     41 C28         -8.2450    -3.5050    -0.1980 c3         1 8PE      -0.074400
     42 C29         -9.3590    -3.8740     0.8070 c3         1 8PE      -0.074400
     43 C2A         -9.7450    -5.3690     0.7720 c3         1 8PE      -0.074400
     44 C2B        -10.8520    -5.7310     1.7880 c3         1 8PE      -0.074400
     45 C2C        -11.2550    -7.2210     1.7420 c3         1 8PE      -0.075400
     46 C2D        -12.3520    -7.5830     2.7690 c3         1 8PE      -0.075400
     47 C2E        -12.7630    -9.0670     2.7170 c3         1 8PE      -0.088100
     48 HN          -3.1560     2.2130    -0.3550 hn         1 8PE       0.389500
     49 HNA         -2.3580     3.6170    -0.4060 hn         1 8PE       0.389500
     50 H11         -1.2170     3.8290     2.4420 h1         1 8PE       0.029700
     51 H11A        -2.6890     4.4770     3.1690 h1         1 8PE       0.029700
     52 H12         -4.0650     3.5450     1.2870 h1         1 8PE       0.016200
     53 H12A        -3.1300     2.2760     2.0920 h1         1 8PE       0.016200
     54 H1          -5.0410     6.0310    -1.8880 h1         1 8PE       0.033200
     55 H1A         -4.0200     7.3640    -1.3960 h1         1 8PE       0.033200
     56 H2          -3.1750     6.2760    -3.4090 h1         1 8PE       0.048700
     57 H3          -0.9300     6.2670    -3.0670 h1         1 8PE       0.050700
     58 H3A         -1.5120     7.2210    -1.6940 h1         1 8PE       0.050700
     59 H32          1.4660     4.9540     0.9760 hc         1 8PE       0.086700
     60 H32A         0.1850     3.8120     0.4380 hc         1 8PE       0.086700
     61 H33          1.5210     3.1480    -1.5070 hc         1 8PE       0.043200
     62 H33A         2.7510     4.3540    -1.1310 hc         1 8PE       0.043200
     63 H34          3.2510     3.1710     1.0320 hc         1 8PE       0.044700
     64 H34A         2.0550     1.9370     0.6300 hc         1 8PE       0.044700
     65 H35          3.3720     1.2850    -1.3880 hc         1 8PE       0.034200
     66 H35A         4.5330     2.5750    -1.0670 hc         1 8PE       0.034200
     67 H36          5.1320     1.4840     1.1210 hc         1 8PE       0.037200
     68 H36A         4.0060     0.1710     0.7690 hc         1 8PE       0.037200
     69 H37          5.3320    -0.4500    -1.2560 hc         1 8PE       0.034700
     70 H37A         6.4250     0.9060    -0.9740 hc         1 8PE       0.034700
     71 H38          7.1050    -0.1050     1.2280 hc         1 8PE       0.036700
     72 H38A         6.0410    -1.4790     0.9210 hc         1 8PE       0.036700
     73 H39          7.3720    -2.0800    -1.1080 hc         1 8PE       0.035700
     74 H39A         8.4060    -0.6710    -0.8640 hc         1 8PE       0.035700
     75 H3AA         9.1580    -1.6040     1.3460 hc         1 8PE       0.036700
     76 H3AB         8.1420    -3.0250     1.0900 hc         1 8PE       0.036700
     77 H3B          9.4650    -3.6240    -0.9480 hc         1 8PE       0.036200
     78 H3BA        10.4540    -2.1760    -0.7460 hc         1 8PE       0.036200
     79 H3C         11.2700    -3.0390     1.4680 hc         1 8PE       0.037200
     80 H3CA        10.2900    -4.4920     1.2640 hc         1 8PE       0.037200
     81 H3D         11.5940    -5.0990    -0.7870 hc         1 8PE       0.036200
     82 H3DA        12.5570    -3.6290    -0.6200 hc         1 8PE       0.036200
     83 H3E         13.4150    -4.4380     1.5980 hc         1 8PE       0.037200
     84 H3EA        12.4550    -5.9110     1.4340 hc         1 8PE       0.037200
     85 H3F         13.7460    -6.5310    -0.6250 hc         1 8PE       0.036200
     86 H3FA        14.6940    -5.0490    -0.4840 hc         1 8PE       0.036200
     87 H3G         15.5770    -5.8220     1.7380 hc         1 8PE       0.036700
     88 H3GA        14.6310    -7.3060     1.6000 hc         1 8PE       0.036700
     89 H3H         15.9120    -7.9360    -0.4670 hc         1 8PE       0.036200
     90 H3HA        16.8520    -6.4470    -0.3430 hc         1 8PE       0.036200
     91 H3I         17.7910    -7.2110     1.8650 hc         1 8PE       0.030367
     92 H3IA        16.8430    -8.7120     1.7440 hc         1 8PE       0.030367
     93 H3IB        18.1340    -8.3780     0.5690 hc         1 8PE       0.030367
     94 H22         -4.3600     1.8980    -4.2620 hc         1 8PE       0.071700
     95 H22A        -3.1600     1.9120    -2.9190 hc         1 8PE       0.071700
     96 H23         -4.9850     2.2390    -1.2730 hc         1 8PE       0.050700
     97 H23A        -6.1750     2.3070    -2.5670 hc         1 8PE       0.050700
     98 H24         -5.6630    -0.0590    -3.1950 hc         1 8PE       0.036700
     99 H24A        -4.4570    -0.1500    -1.9100 hc         1 8PE       0.036700
    100 H25         -6.2150     0.2310    -0.1890 hc         1 8PE       0.038200
    101 H25A        -7.4340     0.4360    -1.4460 hc         1 8PE       0.038200
    102 H26         -7.0810    -1.9340    -2.1880 hc         1 8PE       0.036200
    103 H26A        -5.8650    -2.1510    -0.9270 hc         1 8PE       0.036200
    104 H27         -7.5840    -1.7150     0.8330 hc         1 8PE       0.036700
    105 H27A        -8.8030    -1.4240    -0.4070 hc         1 8PE       0.036700
    106 H28         -8.5630    -3.7880    -1.2090 hc         1 8PE       0.036700
    107 H28A        -7.3440    -4.0880     0.0300 hc         1 8PE       0.036700
    108 H29         -9.0300    -3.6100     1.8200 hc         1 8PE       0.036700
    109 H29A       -10.2500    -3.2700     0.5940 hc         1 8PE       0.036700
    110 H2A        -10.0840    -5.6290    -0.2390 hc         1 8PE       0.036200
    111 H2AA        -8.8550    -5.9760     0.9780 hc         1 8PE       0.036200
    112 H2B        -10.5070    -5.4820     2.8000 hc         1 8PE       0.036200
    113 H2BA       -11.7370    -5.1130     1.5910 hc         1 8PE       0.036200
    114 H2C        -11.6120    -7.4660     0.7340 hc         1 8PE       0.036700
    115 H2CA       -10.3690    -7.8410     1.9290 hc         1 8PE       0.036700
    116 H2D        -11.9940    -7.3480     3.7790 hc         1 8PE       0.036200
    117 H2DA       -13.2380    -6.9610     2.5900 hc         1 8PE       0.036200
    118 H2E        -13.1650    -9.3240     1.7290 hc         1 8PE       0.030033
    119 H2EA       -11.9030    -9.7160     2.9220 hc         1 8PE       0.030033
    120 H2EB       -13.5370    -9.2750     3.4650 hc         1 8PE       0.030033
@<TRIPOS>BOND
     1     1     3 1   
     2     1     4 1   
     3     1     5 1   
     4     1     6 1   
     5     2     8 1   
     6     2    48 1   
     7     2    49 1   
     8     3     9 1   
     9     5     7 1   
    10     7     8 1   
    11     7    50 1   
    12     7    51 1   
    13     8    52 1   
    14     8    53 1   
    15     9    10 1   
    16     9    54 1   
    17     9    55 1   
    18    10    11 1   
    19    10    32 1   
    20    10    56 1   
    21    11    12 1   
    22    11    57 1   
    23    11    58 1   
    24    12    14 1   
    25    13    14 2   
    26    14    15 1   
    27    15    16 1   
    28    15    59 1   
    29    15    60 1   
    30    16    17 1   
    31    16    61 1   
    32    16    62 1   
    33    17    18 1   
    34    17    63 1   
    35    17    64 1   
    36    18    19 1   
    37    18    65 1   
    38    18    66 1   
    39    19    20 1   
    40    19    67 1   
    41    19    68 1   
    42    20    21 1   
    43    20    69 1   
    44    20    70 1   
    45    21    22 1   
    46    21    71 1   
    47    21    72 1   
    48    22    23 1   
    49    22    73 1   
    50    22    74 1   
    51    23    24 1   
    52    23    75 1   
    53    23    76 1   
    54    24    25 1   
    55    24    77 1   
    56    24    78 1   
    57    25    26 1   
    58    25    79 1   
    59    25    80 1   
    60    26    27 1   
    61    26    81 1   
    62    26    82 1   
    63    27    28 1   
    64    27    83 1   
    65    27    84 1   
    66    28    29 1   
    67    28    85 1   
    68    28    86 1   
    69    29    30 1   
    70    29    87 1   
    71    29    88 1   
    72    30    31 1   
    73    30    89 1   
    74    30    90 1   
    75    31    91 1   
    76    31    92 1   
    77    31    93 1   
    78    32    34 1   
    79    33    34 2   
    80    34    35 1   
    81    35    36 1   
    82    35    94 1   
    83    35    95 1   
    84    36    37 1   
    85    36    96 1   
    86    36    97 1   
    87    37    38 1   
    88    37    98 1   
    89    37    99 1   
    90    38    39 1   
    91    38   100 1   
    92    38   101 1   
    93    39    40 1   
    94    39   102 1   
    95    39   103 1   
    96    40    41 1   
    97    40   104 1   
    98    40   105 1   
    99    41    42 1   
   100    41   106 1   
   101    41   107 1   
   102    42    43 1   
   103    42   108 1   
   104    42   109 1   
   105    43    44 1   
   106    43   110 1   
   107    43   111 1   
   108    44    45 1   
   109    44   112 1   
   110    44   113 1   
   111    45    46 1   
   112    45   114 1   
   113    45   115 1   
   114    46    47 1   
   115    46   116 1   
   116    46   117 1   
   117    47   118 1   
   118    47   119 1   
   119    47   120 1   
@<TRIPOS>SUBSTRUCTURE
     1 8PE         1 TEMP              0 ****  ****    0 ROOT
