@<TRIPOS>MOLECULE
8PF
   25    24     1     0     0
SMALL
No Charge or Current Charge


@<TRIPOS>ATOM
      1 C13          0.3620    -0.4490     0.0090 c3         1 8PF       0.108000
      2 C16          1.7230     0.3540     0.0160 c3         1 8PF       0.104000
      3 C19          3.0410    -0.5070    -0.1020 c3         1 8PF       0.080000
      4 C10         -0.9540     0.4110    -0.1600 c3         1 8PF       0.097000
      5 C22          4.3810     0.2620     0.1400 c3         1 8PF       0.276000
      6 F01         -2.2970    -1.5570    -0.4730 f          1 8PF      -0.078000
      7 C02         -2.3160    -0.3410     0.1240 c3         1 8PF       0.118000
      8 F03         -2.4000    -0.6070     1.4510 f          1 8PF      -0.078000
      9 C04         -3.6300     0.4010    -0.3070 c3         1 8PF      -0.012000
     10 F05         -3.5850     1.6950     0.1070 f          1 8PF      -0.114000
     11 F06         -3.6900     0.4650    -1.6640 f          1 8PF      -0.114000
     12 C07         -4.8950    -0.3240     0.2570 c          1 8PF       0.726000
     13 O08         -5.4310     0.1290     1.2620 o          1 8PF      -0.653500
     14 O09         -5.3650    -1.2590    -0.3800 o          1 8PF      -0.653500
     15 F11         -0.8810     1.4950     0.6510 f          1 8PF      -0.074000
     16 F12         -0.9830     0.9160    -1.4180 f          1 8PF      -0.074000
     17 F14          0.4010    -1.3750    -0.9800 f          1 8PF      -0.066500
     18 F15          0.2770    -1.1660     1.1560 f          1 8PF      -0.066500
     19 F17          1.7110     1.2630    -0.9890 f          1 8PF      -0.066000
     20 F18          1.7840     1.0910     1.1520 f          1 8PF      -0.066000
     21 F20          2.9820    -1.5490     0.7630 f          1 8PF      -0.064500
     22 F21          3.0930    -1.0630    -1.3380 f          1 8PF      -0.064500
     23 F23          5.4500    -0.5300    -0.1140 f          1 8PF      -0.088000
     24 F24          4.4820     1.3550    -0.6520 f          1 8PF      -0.088000
     25 F25          4.4880     0.6840     1.4220 f          1 8PF      -0.088000
@<TRIPOS>BOND
     1     1     2 1   
     2     1     4 1   
     3     1    17 1   
     4     1    18 1   
     5     2     3 1   
     6     2    19 1   
     7     2    20 1   
     8     3     5 1   
     9     3    21 1   
    10     3    22 1   
    11     4     7 1   
    12     4    15 1   
    13     4    16 1   
    14     5    23 1   
    15     5    24 1   
    16     5    25 1   
    17     6     7 1   
    18     7     8 1   
    19     7     9 1   
    20     9    10 1   
    21     9    11 1   
    22     9    12 1   
    23    12    13 1   
    24    12    14 1   
@<TRIPOS>SUBSTRUCTURE
     1 8PF         1 TEMP              0 ****  ****    0 ROOT
