@<TRIPOS>MOLECULE
8PF
   25    24     1     0     0
SMALL
bcc


@<TRIPOS>ATOM
      1 C13          0.3500    -0.4760    -0.0310 c3         1 8PF       0.350600
      2 C16          1.6640     0.3620     0.0650 c3         1 8PF       0.346600
      3 C19          2.9610    -0.4520    -0.2090 c3         1 8PF       0.322600
      4 C10         -0.9380     0.3890    -0.2010 c3         1 8PF       0.339600
      5 C22          4.2760     0.2500     0.2270 c3         1 8PF       0.639900
      6 F01         -2.1860    -1.6010    -0.3600 f          1 8PF      -0.199300
      7 C02         -2.2630    -0.3550     0.1380 c3         1 8PF       0.360600
      8 F03         -2.3450    -0.4410     1.4820 f          1 8PF      -0.199300
      9 C04         -3.5580     0.3200    -0.3740 c3         1 8PF       0.230600
     10 F05         -3.4160     1.6590    -0.2380 f          1 8PF      -0.235300
     11 F06         -3.6670     0.0680    -1.7030 f          1 8PF      -0.235300
     12 C07         -4.8310    -0.2010     0.3700 c          1 8PF       0.936600
     13 O08         -5.4590     0.6450     1.0090 o          1 8PF      -0.758800
     14 O09         -5.0370    -1.4080     0.2010 o          1 8PF      -0.758800
     15 F11         -0.8380     1.4650     0.5970 f          1 8PF      -0.195300
     16 F12         -0.9790     0.8040    -1.4780 f          1 8PF      -0.195300
     17 F14          0.4410    -1.3080    -1.0800 f          1 8PF      -0.187800
     18 F15          0.2520    -1.2080     1.0890 f          1 8PF      -0.187800
     19 F17          1.6190     1.3650    -0.8250 f          1 8PF      -0.187300
     20 F18          1.7350     0.8860     1.2980 f          1 8PF      -0.187300
     21 F20          2.9010    -1.6270     0.4370 f          1 8PF      -0.185800
     22 F21          3.0480    -0.6830    -1.5260 f          1 8PF      -0.185800
     23 F23          5.3040    -0.4460    -0.2390 f          1 8PF      -0.209300
     24 F24          4.3410     1.4810    -0.2620 f          1 8PF      -0.209300
     25 F25          4.3720     0.3050     1.5470 f          1 8PF      -0.209300
@<TRIPOS>BOND
     1     1     2 1   
     2     1     4 1   
     3     1    17 1   
     4     1    18 1   
     5     2     3 1   
     6     2    19 1   
     7     2    20 1   
     8     3     5 1   
     9     3    21 1   
    10     3    22 1   
    11     4     7 1   
    12     4    15 1   
    13     4    16 1   
    14     5    23 1   
    15     5    24 1   
    16     5    25 1   
    17     6     7 1   
    18     7     8 1   
    19     7     9 1   
    20     9    10 1   
    21     9    11 1   
    22     9    12 1   
    23    12    13 1   
    24    12    14 1   
@<TRIPOS>SUBSTRUCTURE
     1 8PF         1 TEMP              0 ****  ****    0 ROOT
