@<TRIPOS>MOLECULE
8PG
   55    55     1     0     0
SMALL
abcg2


@<TRIPOS>ATOM
      1 CAA          9.4640     2.9410    -0.0420 c3         1 8PG      -0.088100
      2 CAJ          7.9760     3.0880     0.2420 c3         1 8PG      -0.075400
      3 CAK          7.1770     1.8520    -0.1510 c3         1 8PG      -0.076400
      4 CAO          5.6850     1.9810     0.1320 c3         1 8PG      -0.073400
      5 CAR          4.9040     0.7410    -0.2810 c3         1 8PG      -0.107400
      6 CAV          3.3970     0.8430    -0.0320 c3         1 8PG       0.204500
      7 OAE          3.0920     1.0500     1.3270 oh         1 8PG      -0.645000
      8 CAH          2.6970    -0.3470    -0.6240 c2         1 8PG      -0.259200
      9 CAI          1.9020    -1.1910     0.0240 c2         1 8PG      -0.191200
     10 CAW          1.2740    -2.3960    -0.6190 c5         1 8PG      -0.010300
     11 CAG          1.8230    -3.6350     0.0320 c2         1 8PG      -0.166200
     12 CAF          0.9230    -4.2790     0.7790 ce         1 8PG      -0.307200
     13 CAU         -0.3700    -3.5870     0.6940 c          1 8PG       0.563300
     14 OAC         -1.3540    -3.8280     1.3610 o          1 8PG      -0.501100
     15 CAX         -0.2510    -2.5230    -0.3880 c5         1 8PG      -0.160700
     16 CAS         -1.0180    -1.2300    -0.1260 c3         1 8PG      -0.053400
     17 CAP         -2.5150    -1.3370    -0.3950 c3         1 8PG      -0.078400
     18 CAM         -3.2540    -0.0300    -0.1390 c3         1 8PG      -0.073400
     19 CAL         -4.7450    -0.1220    -0.4340 c3         1 8PG      -0.079400
     20 CAN         -5.5040     1.1690    -0.1490 c3         1 8PG      -0.053400
     21 CAQ         -6.9870     1.0540    -0.4570 c3         1 8PG      -0.203400
     22 CAT         -7.8420     2.3030    -0.1820 c          1 8PG       0.716000
     23 OAD         -7.2890     3.2840     0.3550 o          1 8PG      -0.744500
     24 OAB         -9.0440     2.2280    -0.5170 o          1 8PG      -0.744500
     25 HAA1        10.0190     3.8370     0.2420 hc         1 8PG       0.030033
     26 HAA2         9.8880     2.1010     0.5120 hc         1 8PG       0.030033
     27 HAA3         9.6460     2.7600    -1.1030 hc         1 8PG       0.030033
     28 HAJ1         7.8240     3.2950     1.3060 hc         1 8PG       0.038700
     29 HAJ2         7.5820     3.9580    -0.2940 hc         1 8PG       0.038700
     30 HAK1         7.3280     1.6450    -1.2160 hc         1 8PG       0.034200
     31 HAK2         7.5740     0.9810     0.3840 hc         1 8PG       0.034200
     32 HAO1         5.5360     2.1790     1.1970 hc         1 8PG       0.046700
     33 HAO2         5.2880     2.8530    -0.4000 hc         1 8PG       0.046700
     34 HAR1         5.0650     0.5500    -1.3470 hc         1 8PG       0.040700
     35 HAR2         5.2940    -0.1400     0.2440 hc         1 8PG       0.040700
     36 HAV          3.0330     1.7370    -0.5520 h1         1 8PG       0.083700
     37 HAE          3.4860     0.3340     1.8380 ho         1 8PG       0.437000
     38 HAH          2.8910    -0.5110    -1.6810 ha         1 8PG       0.170000
     39 HAI          1.6900    -1.0470     1.0800 ha         1 8PG       0.185000
     40 HAW          1.5120    -2.3860    -1.6860 hc         1 8PG       0.064700
     41 HAG          2.8620    -3.9170    -0.0790 ha         1 8PG       0.185000
     42 HAF          1.0950    -5.1590     1.3840 ha         1 8PG       0.206000
     43 HAX         -0.6620    -2.9910    -1.2930 hc         1 8PG       0.073700
     44 HAS1        -0.8500    -0.8930     0.9010 hc         1 8PG       0.045700
     45 HAS2        -0.6020    -0.4470    -0.7670 hc         1 8PG       0.045700
     46 HAP1        -2.6670    -1.6440    -1.4360 hc         1 8PG       0.040700
     47 HAP2        -2.9520    -2.1250     0.2220 hc         1 8PG       0.040700
     48 HAM1        -3.1090     0.2720     0.9040 hc         1 8PG       0.034200
     49 HAM2        -2.8100     0.7680    -0.7470 hc         1 8PG       0.034200
     50 HAL1        -4.8880    -0.4070    -1.4830 hc         1 8PG       0.024700
     51 HAL2        -5.1800    -0.9360     0.1570 hc         1 8PG       0.024700
     52 HAN1        -5.3640     1.4460     0.9000 hc         1 8PG       0.037700
     53 HAN2        -5.0630     1.9830    -0.7340 hc         1 8PG       0.037700
     54 HAQ1        -7.1240     0.7680    -1.5070 hc         1 8PG       0.014200
     55 HAQ2        -7.4140     0.2210     0.1150 hc         1 8PG       0.014200
@<TRIPOS>BOND
     1     1     2 1   
     2     1    25 1   
     3     1    26 1   
     4     1    27 1   
     5     2     3 1   
     6     2    28 1   
     7     2    29 1   
     8     3     4 1   
     9     3    30 1   
    10     3    31 1   
    11     4     5 1   
    12     4    32 1   
    13     4    33 1   
    14     5     6 1   
    15     5    34 1   
    16     5    35 1   
    17     6     7 1   
    18     6     8 1   
    19     6    36 1   
    20     7    37 1   
    21     8     9 2   
    22     8    38 1   
    23     9    10 1   
    24     9    39 1   
    25    10    11 1   
    26    10    15 1   
    27    10    40 1   
    28    11    12 2   
    29    11    41 1   
    30    12    13 1   
    31    12    42 1   
    32    13    14 2   
    33    13    15 1   
    34    15    16 1   
    35    15    43 1   
    36    16    17 1   
    37    16    44 1   
    38    16    45 1   
    39    17    18 1   
    40    17    46 1   
    41    17    47 1   
    42    18    19 1   
    43    18    48 1   
    44    18    49 1   
    45    19    20 1   
    46    19    50 1   
    47    19    51 1   
    48    20    21 1   
    49    20    52 1   
    50    20    53 1   
    51    21    22 1   
    52    21    54 1   
    53    21    55 1   
    54    22    23 1   
    55    22    24 1   
@<TRIPOS>SUBSTRUCTURE
     1 8PG         1 TEMP              0 ****  ****    0 ROOT
