@<TRIPOS>MOLECULE
8PG
   55    55     1     0     0
SMALL
No Charge or Current Charge


@<TRIPOS>ATOM
      1 CAA          9.2030     2.7770     0.6990 c3         1 8PG      -0.088100
      2 CAJ          7.7100     3.0420     0.4210 c3         1 8PG      -0.075400
      3 CAK          6.9080     1.7510     0.1470 c3         1 8PG      -0.076400
      4 CAO          5.4120     2.0160    -0.1320 c3         1 8PG      -0.073400
      5 CAR          4.6100     0.7210    -0.4060 c3         1 8PG      -0.107400
      6 CAV          3.1160     0.9600    -0.7290 c3         1 8PG       0.204500
      7 OAE          2.4490     1.4850     0.4160 oh         1 8PG      -0.645000
      8 CAH          2.4120    -0.3140    -1.1400 c2         1 8PG      -0.259200
      9 CAI          2.1760    -1.3760    -0.3470 c2         1 8PG      -0.191200
     10 CAW          1.4690    -2.6030    -0.9130 c5         1 8PG      -0.010300
     11 CAG          2.0240    -3.8790    -0.2930 c2         1 8PG      -0.166200
     12 CAF          1.2020    -4.2490     0.7080 ce         1 8PG      -0.307200
     13 CAU          0.0450    -3.3630     0.9080 c          1 8PG       0.563300
     14 OAC         -0.5580    -3.1950     1.9590 o          1 8PG      -0.501100
     15 CAX         -0.0310    -2.6200    -0.4420 c5         1 8PG      -0.160700
     16 CAS         -0.7980    -1.2670    -0.4230 c3         1 8PG      -0.053400
     17 CAP         -2.3270    -1.3960    -0.2300 c3         1 8PG      -0.078400
     18 CAM         -3.0550    -0.0330    -0.2520 c3         1 8PG      -0.073400
     19 CAL         -4.5820    -0.1610    -0.0630 c3         1 8PG      -0.079400
     20 CAN         -5.3110     1.2020    -0.0860 c3         1 8PG      -0.053400
     21 CAQ         -6.8430     1.0770     0.1030 c3         1 8PG      -0.203400
     22 CAT         -7.4980     2.4700     0.0670 c          1 8PG       0.716000
     23 OAD         -7.5990     3.0870     1.1170 o          1 8PG      -0.744500
     24 OAB         -7.8470     2.9160    -1.0150 o          1 8PG      -0.744500
     25 HAA1         9.7290     3.7210     0.8870 hc         1 8PG       0.030033
     26 HAA2         9.3260     2.1340     1.5790 hc         1 8PG       0.030033
     27 HAA3         9.6760     2.2850    -0.1590 hc         1 8PG       0.030033
     28 HAJ1         7.2750     3.5650     1.2810 hc         1 8PG       0.038700
     29 HAJ2         7.6230     3.7150    -0.4410 hc         1 8PG       0.038700
     30 HAK1         7.3480     1.2300    -0.7120 hc         1 8PG       0.034200
     31 HAK2         7.0000     1.0800     1.0100 hc         1 8PG       0.034200
     32 HAO1         4.9760     2.5400     0.7280 hc         1 8PG       0.046700
     33 HAO2         5.3200     2.6870    -0.9950 hc         1 8PG       0.046700
     34 HAR1         5.0680     0.1980    -1.2550 hc         1 8PG       0.040700
     35 HAR2         4.6940     0.0510     0.4580 hc         1 8PG       0.040700
     36 HAV          3.0550     1.6760    -1.5630 h1         1 8PG       0.083700
     37 HAE          1.4970     1.2880     0.2850 ho         1 8PG       0.437000
     38 HAH          2.0990    -0.3210    -2.1850 ha         1 8PG       0.170000
     39 HAI          2.5000    -1.3620     0.6960 ha         1 8PG       0.185000
     40 HAW          1.5380    -2.6330    -2.0080 hc         1 8PG       0.064700
     41 HAG          2.9610    -4.3720    -0.5630 ha         1 8PG       0.185000
     42 HAF          1.3960    -5.0600     1.4070 ha         1 8PG       0.206000
     43 HAX         -0.5450    -3.2980    -1.1340 hc         1 8PG       0.073700
     44 HAS1        -0.3960    -0.6220     0.3680 hc         1 8PG       0.045700
     45 HAS2        -0.6180    -0.7430    -1.3700 hc         1 8PG       0.045700
     46 HAP1        -2.7360    -2.0330    -1.0240 hc         1 8PG       0.040700
     47 HAP2        -2.5390    -1.8960     0.7220 hc         1 8PG       0.040700
     48 HAM1        -2.6460     0.6060     0.5410 hc         1 8PG       0.034200
     49 HAM2        -2.8510     0.4690    -1.2060 hc         1 8PG       0.034200
     50 HAL1        -4.9900    -0.8010    -0.8550 hc         1 8PG       0.024700
     51 HAL2        -4.7860    -0.6620     0.8910 hc         1 8PG       0.024700
     52 HAN1        -4.9010     1.8420     0.7050 hc         1 8PG       0.037700
     53 HAN2        -5.1050     1.7040    -1.0400 hc         1 8PG       0.037700
     54 HAQ1        -7.1990     0.4640    -0.7340 hc         1 8PG       0.014200
     55 HAQ2        -6.9870     0.6100     1.0850 hc         1 8PG       0.014200
@<TRIPOS>BOND
     1     1     2 1   
     2     1    25 1   
     3     1    26 1   
     4     1    27 1   
     5     2     3 1   
     6     2    28 1   
     7     2    29 1   
     8     3     4 1   
     9     3    30 1   
    10     3    31 1   
    11     4     5 1   
    12     4    32 1   
    13     4    33 1   
    14     5     6 1   
    15     5    34 1   
    16     5    35 1   
    17     6     7 1   
    18     6     8 1   
    19     6    36 1   
    20     7    37 1   
    21     8     9 2   
    22     8    38 1   
    23     9    10 1   
    24     9    39 1   
    25    10    11 1   
    26    10    15 1   
    27    10    40 1   
    28    11    12 2   
    29    11    41 1   
    30    12    13 1   
    31    12    42 1   
    32    13    14 2   
    33    13    15 1   
    34    15    16 1   
    35    15    43 1   
    36    16    17 1   
    37    16    44 1   
    38    16    45 1   
    39    17    18 1   
    40    17    46 1   
    41    17    47 1   
    42    18    19 1   
    43    18    48 1   
    44    18    49 1   
    45    19    20 1   
    46    19    50 1   
    47    19    51 1   
    48    20    21 1   
    49    20    52 1   
    50    20    53 1   
    51    21    22 1   
    52    21    54 1   
    53    21    55 1   
    54    22    23 1   
    55    22    24 1   
@<TRIPOS>SUBSTRUCTURE
     1 8PG         1 TEMP              0 ****  ****    0 ROOT
