@<TRIPOS>MOLECULE
8PH
   53    53     1     0     0
SMALL
No Charge or Current Charge


@<TRIPOS>ATOM
      1 OAE          6.6830    -0.5760    -0.3470 o          1 8PH      -0.923333
      2 PAY          5.8280     0.5880     0.0410 p5         1 8PH       1.315000
      3 OAF          5.9910     0.8080     1.5080 o          1 8PH      -0.923333
      4 OAB          6.3310     1.7620    -0.7360 o          1 8PH      -0.923333
      5 CAX          4.0800     0.1520    -0.4470 c3         1 8PH      -0.387000
      6 PAZ          3.0970     1.4730     0.4280 p5         1 8PH       1.315000
      7 OAG          1.7930     1.4930    -0.3010 o          1 8PH      -0.923333
      8 OAH          2.8120     1.0870     1.8410 o          1 8PH      -0.923333
      9 OAC          3.6800     2.8440     0.3580 o          1 8PH      -0.923333
     10 OAD          3.7710     0.0750    -1.9030 oh         1 8PH      -0.690000
     11 CAU          3.7850    -1.2390     0.1960 c3         1 8PH       0.057600
     12 NAW          2.4330    -1.7920    -0.0240 na         1 8PH       0.078300
     13 CAK          1.3280    -1.5880     0.7810 cc         1 8PH      -0.057300
     14 CAJ          2.0730    -2.6810    -1.0420 cc         1 8PH      -0.148000
     15 CAI          0.7450    -3.0180    -0.8650 cd         1 8PH      -0.295000
     16 NAV          0.3140    -2.3360     0.2490 na         1 8PH       0.003000
     17 CAT         -1.0560    -2.4070     0.7820 c3         1 8PH       0.097600
     18 CAS         -2.0330    -1.4610     0.0550 c3         1 8PH      -0.122400
     19 CAR         -3.4720    -1.5410     0.6120 c3         1 8PH      -0.060400
     20 CAQ         -4.4560    -0.5990    -0.1150 c3         1 8PH      -0.081400
     21 CAP         -5.8940    -0.6820     0.4420 c3         1 8PH      -0.070400
     22 CAO         -6.8790     0.2590    -0.2860 c3         1 8PH      -0.078400
     23 CAN         -8.3180     0.1750     0.2710 c3         1 8PH      -0.072400
     24 CAM         -9.3040     1.1150    -0.4560 c3         1 8PH      -0.078400
     25 CAL        -10.7420     1.0310     0.1010 c3         1 8PH      -0.074400
     26 CAA        -11.7260     1.9680    -0.6250 c3         1 8PH      -0.087100
     27 H5           2.8910     0.5130    -2.0070 ho         1 8PH       0.436000
     28 H6           4.5000    -1.9730    -0.1970 h1         1 8PH       0.073200
     29 H7           3.9590    -1.1900     1.2790 h1         1 8PH       0.073200
     30 H8           1.2750    -0.9420     1.6500 h5         1 8PH       0.279000
     31 H9           2.7830    -2.9950    -1.7980 h4         1 8PH       0.172000
     32 H10          0.1010    -3.6730    -1.4410 h4         1 8PH       0.122000
     33 H11         -1.4120    -3.4410     0.6890 h1         1 8PH       0.028200
     34 H12         -1.0310    -2.1560     1.8500 h1         1 8PH       0.028200
     35 H13         -1.6640    -0.4320     0.1400 hc         1 8PH       0.105700
     36 H14         -2.0410    -1.7090    -1.0140 hc         1 8PH       0.105700
     37 H15         -3.8330    -2.5730     0.5280 hc         1 8PH       0.011200
     38 H16         -3.4580    -1.2920     1.6810 hc         1 8PH       0.011200
     39 H17         -4.0960     0.4340    -0.0310 hc         1 8PH       0.059700
     40 H18         -4.4690    -0.8460    -1.1840 hc         1 8PH       0.059700
     41 H19         -6.2540    -1.7150     0.3570 hc         1 8PH       0.021200
     42 H20         -5.8810    -0.4330     1.5100 hc         1 8PH       0.021200
     43 H21         -6.5200     1.2920    -0.2010 hc         1 8PH       0.045700
     44 H22         -6.8920     0.0110    -1.3550 hc         1 8PH       0.045700
     45 H23         -8.6760    -0.8580     0.1870 hc         1 8PH       0.027200
     46 H24         -8.3050     0.4240     1.3400 hc         1 8PH       0.027200
     47 H25         -8.9450     2.1490    -0.3720 hc         1 8PH       0.040700
     48 H26         -9.3160     0.8660    -1.5250 hc         1 8PH       0.040700
     49 H27        -11.1050    -0.0010     0.0160 hc         1 8PH       0.029700
     50 H28        -10.7330     1.2810     1.1690 hc         1 8PH       0.029700
     51 H29        -11.4090     3.0140    -0.5290 hc         1 8PH       0.026033
     52 H30        -11.7830     1.7200    -1.6920 hc         1 8PH       0.026033
     53 H31        -12.7300     1.8740    -0.1960 hc         1 8PH       0.026033
@<TRIPOS>BOND
     1     1     2 1   
     2     2     3 1   
     3     2     4 1   
     4     2     5 1   
     5     5     6 1   
     6     5    10 1   
     7     5    11 1   
     8     6     7 1   
     9     6     8 1   
    10     6     9 1   
    11    10    27 1   
    12    11    12 1   
    13    11    28 1   
    14    11    29 1   
    15    12    13 2   
    16    12    14 1   
    17    13    16 1   
    18    13    30 1   
    19    14    15 2   
    20    14    31 1   
    21    15    16 1   
    22    15    32 1   
    23    16    17 1   
    24    17    18 1   
    25    17    33 1   
    26    17    34 1   
    27    18    19 1   
    28    18    35 1   
    29    18    36 1   
    30    19    20 1   
    31    19    37 1   
    32    19    38 1   
    33    20    21 1   
    34    20    39 1   
    35    20    40 1   
    36    21    22 1   
    37    21    41 1   
    38    21    42 1   
    39    22    23 1   
    40    22    43 1   
    41    22    44 1   
    42    23    24 1   
    43    23    45 1   
    44    23    46 1   
    45    24    25 1   
    46    24    47 1   
    47    24    48 1   
    48    25    26 1   
    49    25    49 1   
    50    25    50 1   
    51    26    51 1   
    52    26    52 1   
    53    26    53 1   
@<TRIPOS>SUBSTRUCTURE
     1 8PH         1 TEMP              0 ****  ****    0 ROOT
