@<TRIPOS>MOLECULE
8PH
   53    53     1     0     0
SMALL
abcg2


@<TRIPOS>ATOM
      1 OAE          5.8630     0.2300    -1.0330 o          1 8PH      -0.923333
      2 PAY          4.8660     1.2820    -0.5010 p5         1 8PH       1.315000
      3 OAF          5.1890     1.7160     0.9340 o          1 8PH      -0.923333
      4 OAB          4.6530     2.4260    -1.4950 o          1 8PH      -0.923333
      5 CAX          3.2430     0.3560    -0.3700 c3         1 8PH      -0.387000
      6 PAZ          1.8260     1.2770     0.4700 p5         1 8PH       1.315000
      7 OAG          0.6420     0.6720    -0.3480 o          1 8PH      -0.923333
      8 OAH          1.7990     0.8470     1.9490 o          1 8PH      -0.923333
      9 OAC          1.9630     2.7810     0.2750 o          1 8PH      -0.923333
     10 OAD          2.7770     0.0280    -1.6790 oh         1 8PH      -0.690000
     11 CAU          3.5270    -0.9560     0.3680 c3         1 8PH       0.057600
     12 NAW          2.4030    -1.8910     0.2780 na         1 8PH       0.078300
     13 CAK          1.2760    -1.8110     0.9650 cc         1 8PH      -0.057300
     14 CAJ          2.2540    -2.8410    -0.6990 cc         1 8PH      -0.148000
     15 CAI          1.0100    -3.3600    -0.5670 cd         1 8PH      -0.295000
     16 NAV          0.4220    -2.7060     0.4890 na         1 8PH       0.003000
     17 CAT         -0.9740    -2.8090     0.8830 c3         1 8PH       0.097600
     18 CAS         -1.8420    -1.8380     0.0950 c3         1 8PH      -0.122400
     19 CAR         -3.3020    -1.9100     0.5210 c3         1 8PH      -0.060400
     20 CAQ         -4.1510    -0.8240    -0.1300 c3         1 8PH      -0.081400
     21 CAP         -5.6260    -0.9100     0.2400 c3         1 8PH      -0.070400
     22 CAO         -6.4420     0.2640    -0.2870 c3         1 8PH      -0.078400
     23 CAN         -7.9250     0.1700     0.0510 c3         1 8PH      -0.072400
     24 CAM         -8.7190     1.3970    -0.3790 c3         1 8PH      -0.078400
     25 CAL        -10.2060     1.2990    -0.0600 c3         1 8PH      -0.074400
     26 CAA        -10.9790     2.5480    -0.4570 c3         1 8PH      -0.087100
     27 H5           1.8030     0.0870    -1.5520 ho         1 8PH       0.436000
     28 H6           4.3800    -1.4620    -0.0820 h1         1 8PH       0.073200
     29 H7           3.7460    -0.7750     1.4170 h1         1 8PH       0.073200
     30 H8           1.1130    -1.0820     1.7490 h5         1 8PH       0.279000
     31 H9           3.0430    -3.0840    -1.3880 h4         1 8PH       0.172000
     32 H10          0.5050    -4.1340    -1.1180 h4         1 8PH       0.122000
     33 H11         -1.2880    -3.8420     0.7280 h1         1 8PH       0.028200
     34 H12         -1.0350    -2.6060     1.9520 h1         1 8PH       0.028200
     35 H13         -1.4450    -0.8280     0.2270 hc         1 8PH       0.105700
     36 H14         -1.7570    -2.0660    -0.9720 hc         1 8PH       0.105700
     37 H15         -3.7080    -2.8960     0.2740 hc         1 8PH       0.011200
     38 H16         -3.3750    -1.8130     1.6100 hc         1 8PH       0.011200
     39 H17         -3.7600     0.1550     0.1670 hc         1 8PH       0.059700
     40 H18         -4.0430    -0.8760    -1.2190 hc         1 8PH       0.059700
     41 H19         -6.0440    -1.8490    -0.1400 hc         1 8PH       0.021200
     42 H20         -5.7250    -0.9540     1.3300 hc         1 8PH       0.021200
     43 H21         -6.0360     1.1940     0.1270 hc         1 8PH       0.045700
     44 H22         -6.3210     0.3390    -1.3730 hc         1 8PH       0.045700
     45 H23         -8.3500    -0.7240    -0.4200 hc         1 8PH       0.027200
     46 H24         -8.0420     0.0250     1.1310 hc         1 8PH       0.027200
     47 H25         -8.3020     2.2850     0.1100 hc         1 8PH       0.040700
     48 H26         -8.5900     1.5590    -1.4550 hc         1 8PH       0.040700
     49 H27        -10.6280     0.4270    -0.5700 hc         1 8PH       0.029700
     50 H28        -10.3330     1.1120     1.0110 hc         1 8PH       0.029700
     51 H29        -10.5930     3.4300     0.0590 hc         1 8PH       0.026033
     52 H30        -10.9010     2.7370    -1.5290 hc         1 8PH       0.026033
     53 H31        -12.0390     2.4610    -0.2130 hc         1 8PH       0.026033
@<TRIPOS>BOND
     1     1     2 1   
     2     2     3 1   
     3     2     4 1   
     4     2     5 1   
     5     5     6 1   
     6     5    10 1   
     7     5    11 1   
     8     6     7 1   
     9     6     8 1   
    10     6     9 1   
    11    10    27 1   
    12    11    12 1   
    13    11    28 1   
    14    11    29 1   
    15    12    13 2   
    16    12    14 1   
    17    13    16 1   
    18    13    30 1   
    19    14    15 2   
    20    14    31 1   
    21    15    16 1   
    22    15    32 1   
    23    16    17 1   
    24    17    18 1   
    25    17    33 1   
    26    17    34 1   
    27    18    19 1   
    28    18    35 1   
    29    18    36 1   
    30    19    20 1   
    31    19    37 1   
    32    19    38 1   
    33    20    21 1   
    34    20    39 1   
    35    20    40 1   
    36    21    22 1   
    37    21    41 1   
    38    21    42 1   
    39    22    23 1   
    40    22    43 1   
    41    22    44 1   
    42    23    24 1   
    43    23    45 1   
    44    23    46 1   
    45    24    25 1   
    46    24    47 1   
    47    24    48 1   
    48    25    26 1   
    49    25    49 1   
    50    25    50 1   
    51    26    51 1   
    52    26    52 1   
    53    26    53 1   
@<TRIPOS>SUBSTRUCTURE
     1 8PH         1 TEMP              0 ****  ****    0 ROOT
