@<TRIPOS>MOLECULE
8PJ
   14    14     1     0     0
SMALL
No Charge or Current Charge


@<TRIPOS>ATOM
      1 N1           1.9330    -0.9920     0.1040 nb         1 8PJ      -0.714000
      2 C4           0.5950    -0.9560     0.1410 ca         1 8PJ       0.681300
      3 C5           2.5980     0.1760    -0.0090 ca         1 8PJ       0.440900
      4 C1           1.9490     1.4120    -0.0880 ca         1 8PJ      -0.227000
      5 C2           0.5500     1.4550    -0.0500 ca         1 8PJ       0.032000
      6 C3          -0.1520     0.2350     0.0680 ca         1 8PJ      -0.353200
      7 O1           0.0370    -2.1790     0.2560 oh         1 8PJ      -0.616300
      8 N2          -1.6370     0.2450     0.1120 no         1 8PJ       0.712200
      9 O2          -2.2140     1.3350     0.0420 o          1 8PJ      -0.406000
     10 O3          -2.2310    -0.8350     0.2160 o          1 8PJ      -0.406000
     11 H1           3.6860     0.1170    -0.0370 h4         1 8PJ       0.035100
     12 H2           2.5310     2.3250    -0.1790 ha         1 8PJ       0.143000
     13 H4           0.0380     2.4160    -0.1110 ha         1 8PJ       0.154000
     14 H3          -0.9310    -2.0140     0.2710 ho         1 8PJ       0.525000
@<TRIPOS>BOND
     1     1     2 ar  
     2     1     3 ar  
     3     2     6 ar  
     4     2     7 1   
     5     3     4 ar  
     6     3    11 1   
     7     4     5 ar  
     8     4    12 1   
     9     5     6 ar  
    10     5    13 1   
    11     6     8 1   
    12     7    14 1   
    13     8     9 1   
    14     8    10 1   
@<TRIPOS>SUBSTRUCTURE
     1 8PJ         1 TEMP              0 ****  ****    0 ROOT
