@<TRIPOS>MOLECULE
8PJ
   14    14     1     0     0
SMALL
abcg2


@<TRIPOS>ATOM
      1 N1           1.9050    -0.9680     0.1020 nb         1 8PJ      -0.714000
      2 C4           0.5840    -0.9690     0.1430 ca         1 8PJ       0.681300
      3 C5           2.5520     0.1780    -0.0080 ca         1 8PJ       0.440900
      4 C1           1.9280     1.4180    -0.0870 ca         1 8PJ      -0.227000
      5 C2           0.5520     1.4430    -0.0470 ca         1 8PJ       0.032000
      6 C3          -0.1390     0.2430     0.0690 ca         1 8PJ      -0.353200
      7 O1           0.0340    -2.1590     0.2540 oh         1 8PJ      -0.616300
      8 N2          -1.5750     0.2680     0.1080 no         1 8PJ       0.712200
      9 O2          -2.1420     1.3270     0.0370 o          1 8PJ      -0.406000
     10 O3          -2.1660    -0.7970     0.2130 o          1 8PJ      -0.406000
     11 H1           3.6340     0.1130    -0.0370 h4         1 8PJ       0.035100
     12 H2           2.5060     2.3250    -0.1770 ha         1 8PJ       0.143000
     13 H4           0.0160     2.3800    -0.1080 ha         1 8PJ       0.154000
     14 H3          -0.9370    -2.0620     0.2750 ho         1 8PJ       0.525000
@<TRIPOS>BOND
     1     1     2 ar  
     2     1     3 ar  
     3     2     6 ar  
     4     2     7 1   
     5     3     4 ar  
     6     3    11 1   
     7     4     5 ar  
     8     4    12 1   
     9     5     6 ar  
    10     5    13 1   
    11     6     8 1   
    12     7    14 1   
    13     8     9 1   
    14     8    10 1   
@<TRIPOS>SUBSTRUCTURE
     1 8PJ         1 TEMP              0 ****  ****    0 ROOT
