@<TRIPOS>MOLECULE
8PK
   33    33     1     0     0
SMALL
bcc


@<TRIPOS>ATOM
      1 O9           3.6310    -0.0780     0.3930 oh         1 8PK      -0.619800
      2 C8           2.6750     0.8610    -0.0100 c3         1 8PK       0.335900
      3 C10          3.1240     1.6780    -1.2030 c3         1 8PK      -0.119100
      4 O4           1.4630     0.2510    -0.3640 os         1 8PK      -0.432600
      5 C4           0.7220    -0.3350     0.6850 c6         1 8PK       0.128100
      6 C5           0.2410    -1.7180     0.2570 c6         1 8PK       0.145100
      7 C6           1.3630    -2.6430    -0.1630 c3         1 8PK      -0.084100
      8 O5          -0.6580    -1.6150    -0.8420 os         1 8PK      -0.430600
      9 C3          -0.4920     0.5240     1.0190 c6         1 8PK       0.139100
     10 O3          -0.0590     1.8110     1.3820 oh         1 8PK      -0.598800
     11 C2          -1.4400     0.5640    -0.1750 c6         1 8PK       0.091100
     12 O2          -2.5530     1.3320     0.2000 os         1 8PK      -0.404600
     13 C7          -3.3450     1.7810    -0.8730 c3         1 8PK       0.124700
     14 C1          -1.8150    -0.8570    -0.6170 c6         1 8PK       0.313900
     15 O1          -2.6480    -1.4090     0.3510 oh         1 8PK      -0.604800
     16 H1           3.8640    -0.6290    -0.3640 ho         1 8PK       0.406000
     17 H2           2.5380     1.5110     0.8600 h2         1 8PK       0.080700
     18 H3           3.2390     1.0500    -2.0900 hc         1 8PK       0.050033
     19 H4           2.4000     2.4590    -1.4320 hc         1 8PK       0.050033
     20 H5           4.0810     2.1550    -0.9950 hc         1 8PK       0.050033
     21 H6           1.3350    -0.4560     1.5870 h1         1 8PK       0.070700
     22 H7          -0.2730    -2.1600     1.1210 h1         1 8PK       0.048700
     23 H8           2.1060    -2.7210     0.6310 hc         1 8PK       0.046700
     24 H9           0.9800    -3.6450    -0.3590 hc         1 8PK       0.046700
     25 H10          1.8630    -2.2850    -1.0620 hc         1 8PK       0.046700
     26 H11         -1.0100     0.0400     1.8610 h1         1 8PK       0.057700
     27 H12         -0.8400     2.3540     1.5300 ho         1 8PK       0.422000
     28 H13         -0.9160     1.0380    -1.0180 h1         1 8PK       0.071700
     29 H14         -2.7490     2.3130    -1.6230 h1         1 8PK       0.030700
     30 H15         -3.8750     0.9660    -1.3760 h1         1 8PK       0.030700
     31 H16         -4.0880     2.4690    -0.4710 h1         1 8PK       0.030700
     32 H17         -2.3130    -0.8290    -1.5940 h2         1 8PK       0.061700
     33 H18         -3.0270    -2.2250     0.0070 ho         1 8PK       0.412000
@<TRIPOS>BOND
     1     1     2 1   
     2     1    16 1   
     3     2     3 1   
     4     2     4 1   
     5     2    17 1   
     6     3    18 1   
     7     3    19 1   
     8     3    20 1   
     9     4     5 1   
    10     5     6 1   
    11     5     9 1   
    12     5    21 1   
    13     6     7 1   
    14     6     8 1   
    15     6    22 1   
    16     7    23 1   
    17     7    24 1   
    18     7    25 1   
    19     8    14 1   
    20     9    10 1   
    21     9    11 1   
    22     9    26 1   
    23    10    27 1   
    24    11    12 1   
    25    11    14 1   
    26    11    28 1   
    27    12    13 1   
    28    13    29 1   
    29    13    30 1   
    30    13    31 1   
    31    14    15 1   
    32    14    32 1   
    33    15    33 1   
@<TRIPOS>SUBSTRUCTURE
     1 8PK         1 TEMP              0 ****  ****    0 ROOT
