@<TRIPOS>MOLECULE
8PK
   33    33     1     0     0
SMALL
No Charge or Current Charge


@<TRIPOS>ATOM
      1 O9           3.6510     0.4630     0.7490 oh         1 8PK      -0.682000
      2 C8           2.6240     1.0920    -0.0010 c3         1 8PK       0.382300
      3 C10          3.2220     1.6460    -1.3020 c3         1 8PK      -0.119100
      4 O4           1.6570     0.1080    -0.3750 os         1 8PK      -0.479000
      5 C4           0.7970    -0.4530     0.6620 c6         1 8PK       0.151300
      6 C5           0.2020    -1.8250     0.2070 c6         1 8PK       0.168300
      7 C6           1.2800    -2.8280    -0.2750 c3         1 8PK      -0.084100
      8 O5          -0.7380    -1.6520    -0.8860 os         1 8PK      -0.477000
      9 C3          -0.3990     0.4820     1.0530 c6         1 8PK       0.162300
     10 O3          -0.0030     1.7890     1.5150 oh         1 8PK      -0.721000
     11 C2          -1.3840     0.6220    -0.1430 c6         1 8PK       0.114300
     12 O2          -2.4650     1.5280     0.2230 os         1 8PK      -0.451000
     13 C7          -3.4190     1.8590    -0.8030 c3         1 8PK       0.147900
     14 C1          -1.8650    -0.7990    -0.6120 c6         1 8PK       0.360300
     15 O1          -2.6700    -1.4670     0.3590 oh         1 8PK      -0.727000
     16 H1           3.8970    -0.3250     0.2220 ho         1 8PK       0.445000
     17 H2           2.1900     1.9150     0.5810 h2         1 8PK       0.080700
     18 H3           3.6570     0.8450    -1.9100 hc         1 8PK       0.050033
     19 H4           2.4460     2.1470    -1.8920 hc         1 8PK       0.050033
     20 H5           4.0060     2.3800    -1.0810 hc         1 8PK       0.050033
     21 H6           1.4030    -0.6370     1.5610 h1         1 8PK       0.070700
     22 H7          -0.3190    -2.2850     1.0600 h1         1 8PK       0.048700
     23 H8           2.0290    -3.0050     0.5050 hc         1 8PK       0.046700
     24 H9           0.8290    -3.7950    -0.5270 hc         1 8PK       0.046700
     25 H10          1.8030    -2.4600    -1.1660 hc         1 8PK       0.046700
     26 H11         -0.9460    -0.0230     1.8650 h1         1 8PK       0.057700
     27 H12         -0.8200     2.3390     1.4330 ho         1 8PK       0.521000
     28 H13         -0.8350     1.0750    -0.9810 h1         1 8PK       0.071700
     29 H14         -2.9160     2.2900    -1.6780 h1         1 8PK       0.030700
     30 H15         -3.9780     0.9710    -1.1240 h1         1 8PK       0.030700
     31 H16         -4.1410     2.5950    -0.4270 h1         1 8PK       0.030700
     32 H17         -2.4450    -0.6800    -1.5410 h2         1 8PK       0.061700
     33 H18         -2.8270    -2.3600    -0.0190 ho         1 8PK       0.511000
@<TRIPOS>BOND
     1     1     2 1   
     2     1    16 1   
     3     2     3 1   
     4     2     4 1   
     5     2    17 1   
     6     3    18 1   
     7     3    19 1   
     8     3    20 1   
     9     4     5 1   
    10     5     6 1   
    11     5     9 1   
    12     5    21 1   
    13     6     7 1   
    14     6     8 1   
    15     6    22 1   
    16     7    23 1   
    17     7    24 1   
    18     7    25 1   
    19     8    14 1   
    20     9    10 1   
    21     9    11 1   
    22     9    26 1   
    23    10    27 1   
    24    11    12 1   
    25    11    14 1   
    26    11    28 1   
    27    12    13 1   
    28    13    29 1   
    29    13    30 1   
    30    13    31 1   
    31    14    15 1   
    32    14    32 1   
    33    15    33 1   
@<TRIPOS>SUBSTRUCTURE
     1 8PK         1 TEMP              0 ****  ****    0 ROOT
