@<TRIPOS>MOLECULE
8PL
   31    31     1     0     0
SMALL
abcg2


@<TRIPOS>ATOM
      1 C01         -0.6450    -0.5640    -0.8490 c3         1 8PL      -0.010000
      2 C02         -1.9080    -0.0600    -0.2020 ca         1 8PL      -0.047300
      3 C03         -3.0640     0.1390    -0.9490 ca         1 8PL      -0.079500
      4 C04         -4.2400     0.5800    -0.3540 ca         1 8PL      -0.162000
      5 C05         -4.2390     0.8230     1.0040 ca         1 8PL       0.137000
      6 C06         -3.1110     0.6380     1.7820 ca         1 8PL      -0.162000
      7 C07         -1.9510     0.1900     1.1690 ca         1 8PL      -0.079500
      8 F08         -5.3690     1.2550     1.5910 f          1 8PL      -0.204000
      9 N09          0.4280     0.3800    -0.6340 ns         1 8PL      -0.462900
     10 C10          1.6580     0.1520    -1.1140 c          1 8PL       0.600100
     11 O11          1.8950    -0.7080    -1.9520 o          1 8PL      -0.603100
     12 C12          2.7570     1.0230    -0.5230 c3         1 8PL      -0.135700
     13 C13          3.4620     0.1700     0.5360 c3         1 8PL       0.106600
     14 S14          4.5800     1.2200     1.5250 sh         1 8PL      -0.519800
     15 C15          3.7080     1.5190    -1.6030 c3         1 8PL      -0.077100
     16 C16         -0.3260    -1.9760    -0.2660 c          1 8PL       0.728000
     17 O17          0.4960    -2.0310     0.6630 o          1 8PL      -0.712000
     18 O18         -0.9790    -2.9060    -0.7720 o          1 8PL      -0.712000
     19 H1          -0.8210    -0.6660    -1.9220 h1         1 8PL       0.067700
     20 H2          -3.0530    -0.0460    -2.0150 ha         1 8PL       0.125000
     21 H3          -5.1360     0.7340    -0.9410 ha         1 8PL       0.114000
     22 H4          -3.1390     0.8310     2.8460 ha         1 8PL       0.114000
     23 H5          -1.0700     0.0230     1.7780 ha         1 8PL       0.125000
     24 H6           0.3270     1.0550     0.1070 hn         1 8PL       0.293500
     25 H7           2.3010     1.8830    -0.0230 hc         1 8PL       0.052700
     26 H8           2.7280    -0.2920     1.1960 h1         1 8PL       0.088200
     27 H9           4.0360    -0.6230     0.0560 h1         1 8PL       0.088200
     28 H10          5.0070     0.2710     2.3650 hs         1 8PL       0.214800
     29 H11          3.1800     2.1070    -2.3530 hc         1 8PL       0.037700
     30 H12          4.4850     2.1530    -1.1750 hc         1 8PL       0.037700
     31 H13          4.1960     0.6840    -2.1050 hc         1 8PL       0.037700
@<TRIPOS>BOND
     1     1     2 1   
     2     1     9 1   
     3     1    16 1   
     4     1    19 1   
     5     2     3 ar  
     6     2     7 ar  
     7     3     4 ar  
     8     3    20 1   
     9     4     5 ar  
    10     4    21 1   
    11     5     6 ar  
    12     5     8 1   
    13     6     7 ar  
    14     6    22 1   
    15     7    23 1   
    16     9    10 1   
    17     9    24 1   
    18    10    11 2   
    19    10    12 1   
    20    12    13 1   
    21    12    15 1   
    22    12    25 1   
    23    13    14 1   
    24    13    26 1   
    25    13    27 1   
    26    14    28 1   
    27    15    29 1   
    28    15    30 1   
    29    15    31 1   
    30    16    17 1   
    31    16    18 1   
@<TRIPOS>SUBSTRUCTURE
     1 8PL         1 TEMP              0 ****  ****    0 ROOT
