@<TRIPOS>MOLECULE
8PL
   31    31     1     0     0
SMALL
No Charge or Current Charge


@<TRIPOS>ATOM
      1 C01         -0.6730    -0.8040    -0.5620 c3         1 8PL      -0.010000
      2 C02         -1.9740    -0.1340    -0.1280 ca         1 8PL      -0.047300
      3 C03         -2.9490     0.2060    -1.0890 ca         1 8PL      -0.079500
      4 C04         -4.1480     0.8270    -0.6950 ca         1 8PL      -0.162000
      5 C05         -4.3750     1.1120     0.6600 ca         1 8PL       0.137000
      6 C06         -3.4120     0.7800     1.6240 ca         1 8PL      -0.162000
      7 C07         -2.2130     0.1580     1.2320 ca         1 8PL      -0.079500
      8 F08         -5.5260     1.7090     1.0370 f          1 8PL      -0.204000
      9 N09          0.4970     0.0500    -0.2490 ns         1 8PL      -0.462900
     10 C10          1.7340    -0.0700    -0.8430 c          1 8PL       0.600100
     11 O11          1.9590    -0.8980    -1.7150 o          1 8PL      -0.603100
     12 C12          2.8050     0.9080    -0.3290 c3         1 8PL      -0.135700
     13 C13          3.9680     0.1160     0.3120 c3         1 8PL       0.106600
     14 S14          5.2090     1.1830     1.1930 sh         1 8PL      -0.519800
     15 C15          3.2700     1.8620    -1.4580 c3         1 8PL      -0.077100
     16 C16         -0.5300    -2.2400     0.0420 c          1 8PL       0.728000
     17 O17         -0.0190    -2.3730     1.1480 o          1 8PL      -0.712000
     18 O18         -0.9560    -3.1820    -0.6140 o          1 8PL      -0.712000
     19 H1          -0.6990    -0.9330    -1.6520 h1         1 8PL       0.067700
     20 H2          -2.7780    -0.0110    -2.1410 ha         1 8PL       0.125000
     21 H3          -4.8970     1.0880    -1.4370 ha         1 8PL       0.114000
     22 H4          -3.5940     1.0040     2.6730 ha         1 8PL       0.114000
     23 H5          -1.4700    -0.0970     1.9850 ha         1 8PL       0.125000
     24 H6           0.4000     0.7570     0.4700 hn         1 8PL       0.293500
     25 H7           2.3520     1.5250     0.4570 hc         1 8PL       0.052700
     26 H8           3.5580    -0.5980     1.0400 h1         1 8PL       0.088200
     27 H9           4.4880    -0.4640    -0.4630 h1         1 8PL       0.088200
     28 H10          6.0170     0.1690     1.5940 hs         1 8PL       0.214800
     29 H11          2.4110     2.3880    -1.8930 hc         1 8PL       0.037700
     30 H12          3.9660     2.6170    -1.0750 hc         1 8PL       0.037700
     31 H13          3.7720     1.3060    -2.2590 hc         1 8PL       0.037700
@<TRIPOS>BOND
     1     1     2 1   
     2     1     9 1   
     3     1    16 1   
     4     1    19 1   
     5     2     3 ar  
     6     2     7 ar  
     7     3     4 ar  
     8     3    20 1   
     9     4     5 ar  
    10     4    21 1   
    11     5     6 ar  
    12     5     8 1   
    13     6     7 ar  
    14     6    22 1   
    15     7    23 1   
    16     9    10 1   
    17     9    24 1   
    18    10    11 2   
    19    10    12 1   
    20    12    13 1   
    21    12    15 1   
    22    12    25 1   
    23    13    14 1   
    24    13    26 1   
    25    13    27 1   
    26    14    28 1   
    27    15    29 1   
    28    15    30 1   
    29    15    31 1   
    30    16    17 1   
    31    16    18 1   
@<TRIPOS>SUBSTRUCTURE
     1 8PL         1 TEMP              0 ****  ****    0 ROOT
