@<TRIPOS>MOLECULE
8PM
   54    55     1     0     0
SMALL
No Charge or Current Charge


@<TRIPOS>ATOM
      1 C2          -1.2170    -0.9420    -0.7760 ca         1 8PM      -0.351500
      2 C5          -0.3780     1.6960    -0.1750 ca         1 8PM       0.451000
      3 C6           0.2080     0.9800    -1.2310 ca         1 8PM      -0.295000
      4 C7          -0.2030    -0.3250    -1.5320 ca         1 8PM       0.102000
      5 C16          1.3060    -2.6110     0.3140 c          1 8PM       0.583100
      6 C18          3.0480    -0.7970     0.2700 c3         1 8PM       0.106000
      7 C19          3.2320     0.6160     0.8520 c3         1 8PM      -0.094400
      8 C20          4.4050     1.3890     0.2140 c3         1 8PM      -0.073400
      9 C21         -0.9360    -5.0110    -0.2710 c3         1 8PM       0.227100
     10 C25          4.5350     2.8300     0.7550 c3         1 8PM      -0.075400
     11 C26          5.6990     3.6150     0.1130 c3         1 8PM      -0.075400
     12 C27          5.8210     5.0550     0.6470 c3         1 8PM      -0.088100
     13 S1          -1.7050    -2.6320    -1.2140 sy         1 8PM       1.216600
     14 C3          -1.8260    -0.2190     0.2710 ca         1 8PM       0.041000
     15 C4          -1.4130     1.0770     0.5750 ca         1 8PM      -0.122000
     16 N8           0.0940     3.0050     0.1110 nh         1 8PM      -0.789400
     17 C9           0.4080     3.4180     1.4970 c3         1 8PM       0.209600
     18 C10          0.4830     3.9340    -0.9730 c3         1 8PM       0.209600
     19 N11         -2.1010     1.6700     1.6280 nc         1 8PM      -0.315500
     20 N12         -2.8370    -0.7160     1.0680 nc         1 8PM      -0.316500
     21 S13         -3.2130     0.5170     2.1520 ss         1 8PM       0.591000
     22 N14         -1.1390    -3.5930     0.0870 n3         1 8PM      -0.757500
     23 C15         -0.0570    -3.0210     0.9570 c3         1 8PM       0.134800
     24 N17          1.8380    -1.4290     0.7900 ns         1 8PM      -0.500900
     25 O22         -3.1690    -2.7240    -1.1700 o          1 8PM      -0.544500
     26 O23         -0.9430    -3.0340    -2.4010 o          1 8PM      -0.544500
     27 O24          1.8790    -3.2700    -0.5450 o          1 8PM      -0.595100
     28 H1           1.0080     1.4240    -1.8120 ha         1 8PM       0.122000
     29 H2           0.2860    -0.8510    -2.3510 ha         1 8PM       0.138000
     30 H3           2.9680    -0.7340    -0.8240 h1         1 8PM       0.054200
     31 H4           3.9170    -1.4210     0.5180 h1         1 8PM       0.054200
     32 H5           2.3110     1.1870     0.6990 hc         1 8PM       0.040700
     33 H6           3.3870     0.5430     1.9360 hc         1 8PM       0.040700
     34 H7           5.3400     0.8450     0.3970 hc         1 8PM       0.043200
     35 H8           4.2620     1.4260    -0.8730 hc         1 8PM       0.043200
     36 H9          -0.7270    -5.6120     0.6240 h1         1 8PM       0.050033
     37 H10         -1.8340    -5.4270    -0.7470 h1         1 8PM       0.050033
     38 H11         -0.0930    -5.1320    -0.9650 h1         1 8PM       0.050033
     39 H12          3.5960     3.3680     0.5710 hc         1 8PM       0.036700
     40 H13          4.6780     2.7960     1.8420 hc         1 8PM       0.036700
     41 H14          6.6420     3.0840     0.2990 hc         1 8PM       0.038200
     42 H15          5.5600     3.6490    -0.9740 hc         1 8PM       0.038200
     43 H16          4.9050     5.6230     0.4450 hc         1 8PM       0.031367
     44 H17          5.9970     5.0540     1.7300 hc         1 8PM       0.031367
     45 H18          6.6590     5.5720     0.1640 hc         1 8PM       0.031367
     46 H19          1.3140     4.0390     1.5230 h1         1 8PM       0.049867
     47 H20         -0.4230     3.9930     1.9260 h1         1 8PM       0.049867
     48 H21          0.5910     2.5410     2.1320 h1         1 8PM       0.049867
     49 H22         -0.1150     3.7490    -1.8750 h1         1 8PM       0.049867
     50 H23          0.3130     4.9760    -0.6690 h1         1 8PM       0.049867
     51 H24          1.5460     3.8120    -1.2230 h1         1 8PM       0.049867
     52 H25          0.1900    -3.7320     1.7560 h1         1 8PM       0.064700
     53 H26         -0.4420    -2.1370     1.4780 h1         1 8PM       0.064700
     54 H27          1.3060    -0.9350     1.4970 hn         1 8PM       0.308500
@<TRIPOS>BOND
     1     1     4 ar  
     2     1    13 1   
     3     1    14 ar  
     4     2     3 ar  
     5     2    15 ar  
     6     2    16 1   
     7     3     4 ar  
     8     3    28 1   
     9     4    29 1   
    10     5    23 1   
    11     5    24 1   
    12     5    27 2   
    13     6     7 1   
    14     6    24 1   
    15     6    30 1   
    16     6    31 1   
    17     7     8 1   
    18     7    32 1   
    19     7    33 1   
    20     8    10 1   
    21     8    34 1   
    22     8    35 1   
    23     9    22 1   
    24     9    36 1   
    25     9    37 1   
    26     9    38 1   
    27    10    11 1   
    28    10    39 1   
    29    10    40 1   
    30    11    12 1   
    31    11    41 1   
    32    11    42 1   
    33    12    43 1   
    34    12    44 1   
    35    12    45 1   
    36    13    22 1   
    37    13    25 2   
    38    13    26 2   
    39    14    15 ar  
    40    14    20 2   
    41    15    19 2   
    42    16    17 1   
    43    16    18 1   
    44    17    46 1   
    45    17    47 1   
    46    17    48 1   
    47    18    49 1   
    48    18    50 1   
    49    18    51 1   
    50    19    21 1   
    51    20    21 1   
    52    22    23 1   
    53    23    52 1   
    54    23    53 1   
    55    24    54 1   
@<TRIPOS>SUBSTRUCTURE
     1 8PM         1 TEMP              0 ****  ****    0 ROOT
