@<TRIPOS>MOLECULE
8PM
   54    55     1     0     0
SMALL
bcc


@<TRIPOS>ATOM
      1 C2          -1.6900    -0.2040    -0.6850 ca         1 8PM      -0.351500
      2 C5          -3.4410     2.0330    -0.0500 ca         1 8PM       0.312600
      3 C6          -2.2280     2.1740    -0.7280 ca         1 8PM      -0.313000
      4 C7          -1.3910     1.0920    -1.0240 ca         1 8PM       0.084000
      5 C16          2.2480    -1.7240     0.5150 c          1 8PM       0.650100
      6 C18          4.5090    -0.8360     0.2080 c3         1 8PM       0.106000
      7 C19          5.2510     0.4700     0.4390 c3         1 8PM      -0.094400
      8 C20          6.7150     0.3720     0.0340 c3         1 8PM      -0.073400
      9 C21         -0.4680    -3.5260     0.7190 c3         1 8PM       0.227100
     10 C25          7.4820     1.6670     0.2710 c3         1 8PM      -0.075400
     11 C26          8.9500     1.5760    -0.1260 c3         1 8PM      -0.075400
     12 C27          9.7100     2.8720     0.1200 c3         1 8PM      -0.088100
     13 S1          -0.6310    -1.5360    -1.0790 sy         1 8PM       1.358200
     14 C3          -2.9180    -0.4320    -0.0170 ca         1 8PM       0.041000
     15 C4          -3.7940     0.6710     0.2960 ca         1 8PM      -0.122000
     16 N8          -4.2310     3.0830     0.2260 nh         1 8PM      -0.651000
     17 C9          -5.3370     3.0600     1.1670 c3         1 8PM       0.209600
     18 C10         -3.9450     4.3650    -0.3880 c3         1 8PM       0.209600
     19 N11         -4.9160     0.2740     0.8690 nc         1 8PM      -0.315500
     20 N12         -3.4050    -1.6000     0.3680 nc         1 8PM      -0.316500
     21 S13         -4.8530    -1.3260     1.0350 ss         1 8PM       0.591000
     22 N14         -0.1970    -2.1340     0.3920 n3         1 8PM      -0.757500
     23 C15          0.8610    -1.4250     1.0710 c3         1 8PM       0.134800
     24 N17          3.1240    -0.7190     0.6180 ns         1 8PM      -0.567900
     25 O22         -1.3790    -2.5810    -1.7600 o          1 8PM      -0.615300
     26 O23          0.5350    -0.9610    -1.7400 o          1 8PM      -0.615300
     27 O24          2.5330    -2.8210     0.0600 o          1 8PM      -0.595100
     28 H1          -1.8800     3.1540    -1.0160 ha         1 8PM       0.140000
     29 H2          -0.4630     1.3100    -1.5350 ha         1 8PM       0.156000
     30 H3           4.5610    -1.1090    -0.8500 h1         1 8PM       0.054200
     31 H4           4.9930    -1.6420     0.7670 h1         1 8PM       0.054200
     32 H5           4.7660     1.2710    -0.1290 hc         1 8PM       0.040700
     33 H6           5.1810     0.7470     1.4950 hc         1 8PM       0.040700
     34 H7           7.1940    -0.4400     0.5910 hc         1 8PM       0.043200
     35 H8           6.7850     0.0980    -1.0240 hc         1 8PM       0.043200
     36 H9          -0.2240    -3.6610     1.7700 h1         1 8PM       0.050033
     37 H10         -1.5250    -3.7450     0.5960 h1         1 8PM       0.050033
     38 H11          0.1220    -4.2340     0.1380 h1         1 8PM       0.050033
     39 H12          7.0030     2.4810    -0.2850 hc         1 8PM       0.036700
     40 H13          7.4090     1.9420     1.3290 hc         1 8PM       0.036700
     41 H14          9.4230     0.7600     0.4290 hc         1 8PM       0.038200
     42 H15          9.0220     1.3040    -1.1830 hc         1 8PM       0.038200
     43 H16          9.2730     3.6980    -0.4450 hc         1 8PM       0.031367
     44 H17          9.6880     3.1490     1.1750 hc         1 8PM       0.031367
     45 H18         10.7560     2.7850    -0.1780 hc         1 8PM       0.031367
     46 H19         -5.4280     4.0510     1.6070 h1         1 8PM       0.049867
     47 H20         -6.2850     2.8110     0.6850 h1         1 8PM       0.049867
     48 H21         -5.1620     2.3570     1.9730 h1         1 8PM       0.049867
     49 H22         -3.7000     4.2470    -1.4430 h1         1 8PM       0.049867
     50 H23         -4.8300     4.9910    -0.3220 h1         1 8PM       0.049867
     51 H24         -3.1180     4.8830     0.1050 h1         1 8PM       0.049867
     52 H25          0.8430    -1.7320     2.1190 h1         1 8PM       0.064700
     53 H26          0.6540    -0.3510     1.0790 h1         1 8PM       0.064700
     54 H27          2.8090     0.1680     0.9760 hn         1 8PM       0.308500
@<TRIPOS>BOND
     1     1     4 ar  
     2     1    13 1   
     3     1    14 ar  
     4     2     3 ar  
     5     2    15 ar  
     6     2    16 1   
     7     3     4 ar  
     8     3    28 1   
     9     4    29 1   
    10     5    23 1   
    11     5    24 1   
    12     5    27 2   
    13     6     7 1   
    14     6    24 1   
    15     6    30 1   
    16     6    31 1   
    17     7     8 1   
    18     7    32 1   
    19     7    33 1   
    20     8    10 1   
    21     8    34 1   
    22     8    35 1   
    23     9    22 1   
    24     9    36 1   
    25     9    37 1   
    26     9    38 1   
    27    10    11 1   
    28    10    39 1   
    29    10    40 1   
    30    11    12 1   
    31    11    41 1   
    32    11    42 1   
    33    12    43 1   
    34    12    44 1   
    35    12    45 1   
    36    13    22 1   
    37    13    25 2   
    38    13    26 2   
    39    14    15 ar  
    40    14    20 2   
    41    15    19 2   
    42    16    17 1   
    43    16    18 1   
    44    17    46 1   
    45    17    47 1   
    46    17    48 1   
    47    18    49 1   
    48    18    50 1   
    49    18    51 1   
    50    19    21 1   
    51    20    21 1   
    52    22    23 1   
    53    23    52 1   
    54    23    53 1   
    55    24    54 1   
@<TRIPOS>SUBSTRUCTURE
     1 8PM         1 TEMP              0 ****  ****    0 ROOT
