@<TRIPOS>MOLECULE
8PN
   12    11     1     0     0
SMALL
bcc


@<TRIPOS>ATOM
      1 C01        -34.7150   -14.9020   -14.6500 c3         1 8PN      -0.087100
      2 C02        -35.4050   -14.4080   -15.9190 c3         1 8PN       0.249600
      3 C03        -35.5490   -15.5050   -16.8800 c1         1 8PN      -0.143100
      4 C04        -35.6660   -16.4090   -17.6650 c1         1 8PN      -0.148500
      5 N05        -36.7260   -13.8810   -15.5890 n8         1 8PN      -0.879800
      6 H1         -34.5820   -14.0760   -13.9500 hc         1 8PN       0.043367
      7 H2         -35.3110   -15.6740   -14.1640 hc         1 8PN       0.043367
      8 H3         -33.7320   -15.3110   -14.8760 hc         1 8PN       0.043367
      9 H4         -34.7520   -13.6560   -16.3840 h1         1 8PN       0.028700
     10 H5         -35.7740   -17.2080   -18.3630 ha         1 8PN       0.166500
     11 H6         -36.6100   -13.1190   -14.9310 hn         1 8PN       0.341800
     12 H7         -37.1440   -13.4700   -16.4150 hn         1 8PN       0.341800
@<TRIPOS>BOND
     1     1     2 1   
     2     1     6 1   
     3     1     7 1   
     4     1     8 1   
     5     2     3 1   
     6     2     5 1   
     7     2     9 1   
     8     3     4 3   
     9     4    10 1   
    10     5    11 1   
    11     5    12 1   
@<TRIPOS>SUBSTRUCTURE
     1 8PN         1 TEMP              0 ****  ****    0 ROOT
