@<TRIPOS>MOLECULE
8PN
   12    11     1     0     0
SMALL
No Charge or Current Charge


@<TRIPOS>ATOM
      1 C01        -34.6930   -14.9100   -14.6140 c3         1 8PN      -0.087100
      2 C02        -35.4040   -14.4330   -15.8950 c3         1 8PN       0.249600
      3 C03        -35.5730   -15.5150   -16.8740 c1         1 8PN      -0.143100
      4 C04        -35.6870   -16.3980   -17.6940 c1         1 8PN      -0.236000
      5 N05        -36.7280   -13.8840   -15.5850 n8         1 8PN      -0.990200
      6 H1         -34.5680   -14.0800   -13.9080 hc         1 8PN       0.043367
      7 H2         -35.2650   -15.7030   -14.1160 hc         1 8PN       0.043367
      8 H3         -33.6970   -15.3030   -14.8500 hc         1 8PN       0.043367
      9 H4         -34.8030   -13.6370   -16.3590 h1         1 8PN       0.028700
     10 H5         -35.8010   -17.1830   -18.4150 ha         1 8PN       0.254000
     11 H6         -36.6050   -13.0370   -15.0190 hn         1 8PN       0.397000
     12 H7         -37.1410   -13.5350   -16.4570 hn         1 8PN       0.397000
@<TRIPOS>BOND
     1     1     2 1   
     2     1     6 1   
     3     1     7 1   
     4     1     8 1   
     5     2     3 1   
     6     2     5 1   
     7     2     9 1   
     8     3     4 3   
     9     4    10 1   
    10     5    11 1   
    11     5    12 1   
@<TRIPOS>SUBSTRUCTURE
     1 8PN         1 TEMP              0 ****  ****    0 ROOT
