@<TRIPOS>MOLECULE
8PO
   32    32     1     0     0
SMALL
abcg2


@<TRIPOS>ATOM
      1 C13         -4.1380     0.0070     0.0480 c3         1 8PO       0.122600
      2 O18          1.3380     2.9770    -0.2590 o          1 8PO      -0.712000
      3 C12         -2.8000    -0.7130    -0.0550 c3         1 8PO      -0.140700
      4 C10         -1.7220     0.2670    -0.5080 c          1 8PO       0.603100
      5 C01          0.6640     0.7310    -0.5580 c3         1 8PO       0.000000
      6 C02          1.9500    -0.0030    -0.2810 ca         1 8PO      -0.070300
      7 C03          2.2490    -0.4590     1.0020 ca         1 8PO      -0.067000
      8 C04          3.4450    -1.1050     1.2740 ca         1 8PO      -0.182000
      9 C05          4.3850    -1.2890     0.2630 ca         1 8PO       0.105100
     10 C06          4.1070    -0.8240    -1.0190 ca         1 8PO      -0.182000
     11 C07          2.8990    -0.1960    -1.2790 ca         1 8PO      -0.067000
     12 O08          5.5620    -1.9170     0.4680 oh         1 8PO      -0.554100
     13 N09         -0.4670    -0.1140    -0.2460 ns         1 8PO      -0.460900
     14 O11         -1.9850     1.3020    -1.1080 o          1 8PO      -0.613100
     15 S14         -5.3970    -1.1290     0.7330 sh         1 8PO      -0.512800
     16 C15         -2.8390    -1.9010    -1.0210 c3         1 8PO      -0.085100
     17 C16          0.6730     2.0580     0.2550 c          1 8PO       0.728000
     18 O17          0.0730     2.0650     1.3410 o          1 8PO      -0.712000
     19 H1          -4.0610     0.8640     0.7150 h1         1 8PO       0.076700
     20 H2          -4.4630     0.3610    -0.9290 h1         1 8PO       0.076700
     21 H4          -2.5230    -1.0730     0.9410 hc         1 8PO       0.067700
     22 H5           0.6320     0.9850    -1.6210 h1         1 8PO       0.062700
     23 H6           1.5500    -0.2940     1.8120 ha         1 8PO       0.123000
     24 H7           3.6510    -1.4520     2.2810 ha         1 8PO       0.102500
     25 H8           4.8360    -0.9560    -1.8090 ha         1 8PO       0.102500
     26 H9           2.6950     0.1550    -2.2840 ha         1 8PO       0.123000
     27 H10          5.7120    -2.0510     1.4100 ho         1 8PO       0.451000
     28 H11         -0.3120    -0.9560     0.2850 hn         1 8PO       0.295500
     29 H12         -6.3100    -0.2000     1.0310 hs         1 8PO       0.207800
     30 H13         -3.6500    -2.5880    -0.7790 hc         1 8PO       0.037033
     31 H14         -2.9890    -1.5580    -2.0460 hc         1 8PO       0.037033
     32 H15         -1.9130    -2.4730    -0.9890 hc         1 8PO       0.037033
@<TRIPOS>BOND
     1     1     3 1   
     2     1    15 1   
     3     1    19 1   
     4     1    20 1   
     5     2    17 1   
     6     3     4 1   
     7     3    16 1   
     8     3    21 1   
     9     4    13 1   
    10     4    14 2   
    11     5     6 1   
    12     5    13 1   
    13     5    17 1   
    14     5    22 1   
    15     6     7 ar  
    16     6    11 ar  
    17     7     8 ar  
    18     7    23 1   
    19     8     9 ar  
    20     8    24 1   
    21     9    10 ar  
    22     9    12 1   
    23    10    11 ar  
    24    10    25 1   
    25    11    26 1   
    26    12    27 1   
    27    13    28 1   
    28    15    29 1   
    29    16    30 1   
    30    16    31 1   
    31    16    32 1   
    32    17    18 1   
@<TRIPOS>SUBSTRUCTURE
     1 8PO         1 TEMP              0 ****  ****    0 ROOT
