@<TRIPOS>MOLECULE
8PO
   32    32     1     0     0
SMALL
No Charge or Current Charge


@<TRIPOS>ATOM
      1 C13         -3.9020    -0.1350     0.3730 c3         1 8PO       0.122600
      2 O18          1.0370     3.1430    -0.5170 o          1 8PO      -0.712000
      3 C12         -2.7720    -0.9060    -0.3450 c3         1 8PO      -0.140700
      4 C10         -1.7000     0.0840    -0.8330 c          1 8PO       0.603100
      5 C01          0.7230     0.7680    -0.5810 c3         1 8PO       0.000000
      6 C02          2.0240     0.0570    -0.2150 ca         1 8PO      -0.070300
      7 C03          2.2980    -0.2980     1.1220 ca         1 8PO      -0.067000
      8 C04          3.4960    -0.9570     1.4520 ca         1 8PO      -0.182000
      9 C05          4.4270    -1.2640     0.4470 ca         1 8PO       0.105100
     10 C06          4.1620    -0.9150    -0.8850 ca         1 8PO      -0.182000
     11 C07          2.9640    -0.2570    -1.2170 ca         1 8PO      -0.067000
     12 O08          5.5880    -1.9010     0.7610 oh         1 8PO      -0.554100
     13 N09         -0.4490    -0.0860    -0.2830 ns         1 8PO      -0.460900
     14 O11         -1.9370     0.9640    -1.6500 o          1 8PO      -0.613100
     15 S14         -5.1310    -1.2310     1.2330 sh         1 8PO      -0.512800
     16 C15         -3.2840    -1.7880    -1.5120 c3         1 8PO      -0.085100
     17 C16          0.6130     2.1740     0.0990 c          1 8PO       0.728000
     18 O17          0.1300     2.2560     1.2220 o          1 8PO      -0.712000
     19 H1          -3.4600     0.5320     1.1270 h1         1 8PO       0.076700
     20 H2          -4.4370     0.4930    -0.3520 h1         1 8PO       0.076700
     21 H4          -2.3070    -1.5720     0.3920 hc         1 8PO       0.067700
     22 H5           0.7240     0.9520    -1.6640 h1         1 8PO       0.062700
     23 H6           1.5820    -0.0640     1.9080 ha         1 8PO       0.123000
     24 H7           3.6940    -1.2240     2.4870 ha         1 8PO       0.102500
     25 H8           4.8820    -1.1540    -1.6630 ha         1 8PO       0.102500
     26 H9           2.7680     0.0080    -2.2540 ha         1 8PO       0.123000
     27 H10          5.6000    -2.0620     1.7290 ho         1 8PO       0.451000
     28 H11         -0.3420    -0.8340     0.3910 hn         1 8PO       0.295500
     29 H12         -5.9110    -0.2290     1.7120 hs         1 8PO       0.207800
     30 H13         -3.9820    -2.5530    -1.1510 hc         1 8PO       0.037033
     31 H14         -3.8000    -1.1800    -2.2650 hc         1 8PO       0.037033
     32 H15         -2.4470    -2.3010    -2.0010 hc         1 8PO       0.037033
@<TRIPOS>BOND
     1     1     3 1   
     2     1    15 1   
     3     1    19 1   
     4     1    20 1   
     5     2    17 1   
     6     3     4 1   
     7     3    16 1   
     8     3    21 1   
     9     4    13 1   
    10     4    14 2   
    11     5     6 1   
    12     5    13 1   
    13     5    17 1   
    14     5    22 1   
    15     6     7 ar  
    16     6    11 ar  
    17     7     8 ar  
    18     7    23 1   
    19     8     9 ar  
    20     8    24 1   
    21     9    10 ar  
    22     9    12 1   
    23    10    11 ar  
    24    10    25 1   
    25    11    26 1   
    26    12    27 1   
    27    13    28 1   
    28    15    29 1   
    29    16    30 1   
    30    16    31 1   
    31    16    32 1   
    32    17    18 1   
@<TRIPOS>SUBSTRUCTURE
     1 8PO         1 TEMP              0 ****  ****    0 ROOT
