@<TRIPOS>MOLECULE
8PP
  117   117     1     0     0
SMALL
No Charge or Current Charge


@<TRIPOS>ATOM
      1 C1          -1.0580    -0.2760   -14.7580 ca         1 8PP       0.146100
      2 C2          -0.7500     1.0880   -14.9570 ca         1 8PP      -0.164300
      3 C3          -1.6470     1.8890   -15.6950 ca         1 8PP      -0.073000
      4 C4          -2.8280     1.3370   -16.2220 ca         1 8PP      -0.146000
      5 O           -0.2190    -1.0700   -14.0390 oh         1 8PP      -0.550100
      6 C5          -3.1230    -0.0210   -16.0220 ca         1 8PP      -0.078000
      7 C6          -2.2350    -0.8270   -15.2900 ca         1 8PP      -0.147000
      8 C7           0.5420     1.7010   -14.4160 c3         1 8PP       0.004100
      9 C8           0.7010     1.4870   -12.9190 c2         1 8PP      -0.242200
     10 C9           1.6590     0.8100   -12.2550 c2         1 8PP      -0.112400
     11 C10          2.8490     0.0890   -12.8800 c3         1 8PP      -0.062900
     12 C11          1.6490     0.7120   -10.7350 c3         1 8PP      -0.042200
     13 C12          1.1330    -0.6480   -10.2190 c3         1 8PP      -0.036200
     14 C13          1.0220    -0.6810    -8.7060 c2         1 8PP      -0.225200
     15 C14         -0.0190    -0.2850    -7.9500 c2         1 8PP      -0.106400
     16 C15         -1.3170     0.3070    -8.4880 c3         1 8PP      -0.056900
     17 C16         -0.0050    -0.4110    -6.4330 c3         1 8PP      -0.039200
     18 C17          0.2880     0.9250    -5.7160 c3         1 8PP      -0.036200
     19 C18          0.3820     0.7600    -4.2100 c2         1 8PP      -0.222200
     20 C19          1.4690     0.4290    -3.4860 c2         1 8PP      -0.111400
     21 C20          2.8480     0.1310    -4.0630 c3         1 8PP      -0.054900
     22 C21          1.4250     0.3380    -1.9670 c3         1 8PP      -0.038200
     23 C22          1.3630    -1.1150    -1.4460 c3         1 8PP      -0.035200
     24 C23          1.2120    -1.1820     0.0660 c2         1 8PP      -0.222200
     25 C24          0.5070    -2.0760     0.7880 c2         1 8PP      -0.111400
     26 C25         -0.2600    -3.2620     0.2160 c3         1 8PP      -0.054900
     27 C26          0.4240    -1.9920     2.3070 c3         1 8PP      -0.038200
     28 C27         -0.9450    -1.4870     2.8150 c3         1 8PP      -0.036200
     29 C28         -0.9750    -1.3090     4.3250 c2         1 8PP      -0.222200
     30 C29         -1.6120    -0.3560     5.0340 c2         1 8PP      -0.112400
     31 C30         -2.4960     0.7380     4.4460 c3         1 8PP      -0.054900
     32 C31         -1.5210    -0.2920     6.5530 c3         1 8PP      -0.038200
     33 C32         -0.6070     0.8440     7.0600 c3         1 8PP      -0.036200
     34 C33         -0.4650     0.8350     8.5720 c2         1 8PP      -0.222200
     35 C34          0.4200     0.1370     9.3090 c2         1 8PP      -0.111400
     36 C35          1.4650    -0.8200     8.7490 c3         1 8PP      -0.054900
     37 C36          0.4730     0.2580    10.8260 c3         1 8PP      -0.038200
     38 C37         -0.1980    -0.9260    11.5540 c3         1 8PP      -0.035200
     39 C38         -0.2210    -0.7350    13.0590 c2         1 8PP      -0.223200
     40 C39         -1.1480    -0.0870    13.7910 c2         1 8PP      -0.111400
     41 C40         -1.0590    -0.0040    15.3090 c3         1 8PP      -0.038200
     42 C41         -2.3770     0.6140    13.2260 c3         1 8PP      -0.054900
     43 C42         -0.5400     1.3610    15.8130 c3         1 8PP      -0.036200
     44 C43         -0.3690     1.3890    17.3210 c2         1 8PP      -0.224200
     45 C44          0.7170     1.0260    18.0300 c2         1 8PP      -0.111400
     46 C45          0.7710     1.1290    19.5430 c3         1 8PP      -0.055900
     47 C46          2.0080     0.4730    17.4430 c3         1 8PP      -0.055900
     48 H3          -1.4300     2.9420   -15.8650 ha         1 8PP       0.108000
     49 H4          -3.5130     1.9630   -16.7890 ha         1 8PP       0.115000
     50 HO           0.4190    -0.4660   -13.5960 ho         1 8PP       0.476000
     51 H5          -4.0360    -0.4480   -16.4310 ha         1 8PP       0.113000
     52 H6          -2.4620    -1.8780   -15.1300 ha         1 8PP       0.126000
     53 H71          0.5560     2.7800   -14.6140 hc         1 8PP       0.056700
     54 H72          1.3880     1.3050   -14.9860 hc         1 8PP       0.056700
     55 H8          -0.0970     1.9690   -12.3490 ha         1 8PP       0.177000
     56 H101         2.8930     0.1790   -13.9690 hc         1 8PP       0.044033
     57 H102         3.7940     0.4880   -12.4920 hc         1 8PP       0.044033
     58 H103         2.8280    -0.9830   -12.6530 hc         1 8PP       0.044033
     59 H111         1.0070     1.4970   -10.3170 hc         1 8PP       0.049200
     60 H112         2.6510     0.9020   -10.3290 hc         1 8PP       0.049200
     61 H121         1.8050    -1.4470   -10.5530 hc         1 8PP       0.046700
     62 H122         0.1630    -0.8640   -10.6840 hc         1 8PP       0.046700
     63 H13          1.9100    -1.0940    -8.2220 ha         1 8PP       0.165000
     64 H151        -1.3190     0.4110    -9.5770 hc         1 8PP       0.040700
     65 H152        -2.1750    -0.3210    -8.2210 hc         1 8PP       0.040700
     66 H153        -1.4980     1.3070    -8.0770 hc         1 8PP       0.040700
     67 H161         0.7640    -1.1320    -6.1290 hc         1 8PP       0.045700
     68 H162        -0.9560    -0.8200    -6.0710 hc         1 8PP       0.045700
     69 H171        -0.5010     1.6490    -5.9530 hc         1 8PP       0.045700
     70 H172         1.2130     1.3530    -6.1200 hc         1 8PP       0.045700
     71 H18         -0.5620     0.9560    -3.7000 ha         1 8PP       0.165000
     72 H201         2.8740     0.1860    -5.1560 hc         1 8PP       0.039033
     73 H202         3.5940     0.8400    -3.6850 hc         1 8PP       0.039033
     74 H203         3.1830    -0.8770    -3.7920 hc         1 8PP       0.039033
     75 H211         0.5410     0.8680    -1.5900 hc         1 8PP       0.045200
     76 H212         2.2900     0.8510    -1.5280 hc         1 8PP       0.045200
     77 H221         2.2780    -1.6420    -1.7410 hc         1 8PP       0.045700
     78 H222         0.5330    -1.6190    -1.9520 hc         1 8PP       0.045700
     79 H23          1.7370    -0.3790     0.5860 ha         1 8PP       0.164000
     80 H251         0.0150    -4.1920     0.7280 hc         1 8PP       0.039033
     81 H252        -1.3420    -3.1280     0.3300 hc         1 8PP       0.039033
     82 H253        -0.0630    -3.4250    -0.8480 hc         1 8PP       0.039033
     83 H261         1.1950    -1.3090     2.6850 hc         1 8PP       0.044700
     84 H262         0.6450    -2.9690     2.7560 hc         1 8PP       0.044700
     85 H271        -1.7230    -2.2020     2.5200 hc         1 8PP       0.046200
     86 H272        -1.1700    -0.5480     2.2980 hc         1 8PP       0.046200
     87 H28         -0.3790    -2.0530     4.8560 ha         1 8PP       0.164000
     88 H301        -3.4700     0.7670     4.9480 hc         1 8PP       0.039033
     89 H302        -2.0350     1.7260     4.5600 hc         1 8PP       0.039033
     90 H303        -2.7010     0.5950     3.3800 hc         1 8PP       0.039033
     91 H311        -1.1280    -1.2400     6.9420 hc         1 8PP       0.045200
     92 H312        -2.5190    -0.1820     6.9940 hc         1 8PP       0.045200
     93 H321        -1.0140     1.8110     6.7400 hc         1 8PP       0.045700
     94 H322         0.3730     0.7600     6.5760 hc         1 8PP       0.045700
     95 H33         -1.1740     1.4970     9.0710 ha         1 8PP       0.165000
     96 H351         2.4790    -0.4850     9.0000 hc         1 8PP       0.039033
     97 H352         1.3400    -1.8290     9.1590 hc         1 8PP       0.039033
     98 H353         1.4160    -0.9160     7.6600 hc         1 8PP       0.039033
     99 H361        -0.0330     1.1790    11.1410 hc         1 8PP       0.044700
    100 H362         1.5110     0.3580    11.1680 hc         1 8PP       0.044700
    101 H371         0.3340    -1.8540    11.3130 hc         1 8PP       0.045200
    102 H372        -1.2140    -1.0580    11.1630 hc         1 8PP       0.045200
    103 H38          0.6260    -1.2050    13.5620 ha         1 8PP       0.164000
    104 H401        -0.3810    -0.7810    15.6830 hc         1 8PP       0.045200
    105 H402        -2.0340    -0.2160    15.7640 hc         1 8PP       0.045200
    106 H411        -2.4320     0.5640    12.1340 hc         1 8PP       0.039033
    107 H412        -3.2990     0.1660    13.6170 hc         1 8PP       0.039033
    108 H413        -2.3870     1.6770    13.4920 hc         1 8PP       0.039033
    109 H421        -1.2370     2.1520    15.5110 hc         1 8PP       0.045200
    110 H422         0.4060     1.5910    15.3100 hc         1 8PP       0.045200
    111 H43         -1.2490     1.7700    17.8440 ha         1 8PP       0.164000
    112 H451         1.5850     1.7900    19.8650 hc         1 8PP       0.038367
    113 H452        -0.1610     1.5300    19.9580 hc         1 8PP       0.038367
    114 H453         0.9370     0.1460    20.0000 hc         1 8PP       0.038367
    115 H461         1.9600     0.3380    16.3570 hc         1 8PP       0.038367
    116 H462         2.8510     1.1420    17.6530 hc         1 8PP       0.038367
    117 H463         2.2460    -0.5060    17.8750 hc         1 8PP       0.038367
@<TRIPOS>BOND
     1     1     2 ar  
     2     1     5 1   
     3     1     7 ar  
     4     2     3 ar  
     5     2     8 1   
     6     3     4 ar  
     7     3    48 1   
     8     4     6 ar  
     9     4    49 1   
    10     5    50 1   
    11     6     7 ar  
    12     6    51 1   
    13     7    52 1   
    14     8     9 1   
    15     8    53 1   
    16     8    54 1   
    17     9    10 2   
    18     9    55 1   
    19    10    11 1   
    20    10    12 1   
    21    11    56 1   
    22    11    57 1   
    23    11    58 1   
    24    12    13 1   
    25    12    59 1   
    26    12    60 1   
    27    13    14 1   
    28    13    61 1   
    29    13    62 1   
    30    14    15 2   
    31    14    63 1   
    32    15    16 1   
    33    15    17 1   
    34    16    64 1   
    35    16    65 1   
    36    16    66 1   
    37    17    18 1   
    38    17    67 1   
    39    17    68 1   
    40    18    19 1   
    41    18    69 1   
    42    18    70 1   
    43    19    20 2   
    44    19    71 1   
    45    20    21 1   
    46    20    22 1   
    47    21    72 1   
    48    21    73 1   
    49    21    74 1   
    50    22    23 1   
    51    22    75 1   
    52    22    76 1   
    53    23    24 1   
    54    23    77 1   
    55    23    78 1   
    56    24    25 2   
    57    24    79 1   
    58    25    26 1   
    59    25    27 1   
    60    26    80 1   
    61    26    81 1   
    62    26    82 1   
    63    27    28 1   
    64    27    83 1   
    65    27    84 1   
    66    28    29 1   
    67    28    85 1   
    68    28    86 1   
    69    29    30 2   
    70    29    87 1   
    71    30    31 1   
    72    30    32 1   
    73    31    88 1   
    74    31    89 1   
    75    31    90 1   
    76    32    33 1   
    77    32    91 1   
    78    32    92 1   
    79    33    34 1   
    80    33    93 1   
    81    33    94 1   
    82    34    35 2   
    83    34    95 1   
    84    35    36 1   
    85    35    37 1   
    86    36    96 1   
    87    36    97 1   
    88    36    98 1   
    89    37    38 1   
    90    37    99 1   
    91    37   100 1   
    92    38    39 1   
    93    38   101 1   
    94    38   102 1   
    95    39    40 2   
    96    39   103 1   
    97    40    41 1   
    98    40    42 1   
    99    41    43 1   
   100    41   104 1   
   101    41   105 1   
   102    42   106 1   
   103    42   107 1   
   104    42   108 1   
   105    43    44 1   
   106    43   109 1   
   107    43   110 1   
   108    44    45 2   
   109    44   111 1   
   110    45    46 1   
   111    45    47 1   
   112    46   112 1   
   113    46   113 1   
   114    46   114 1   
   115    47   115 1   
   116    47   116 1   
   117    47   117 1   
@<TRIPOS>SUBSTRUCTURE
     1 8PP         1 TEMP              0 ****  ****    0 ROOT
