@<TRIPOS>MOLECULE
8PP
  117   117     1     0     0
SMALL
abcg2


@<TRIPOS>ATOM
      1 C1          -0.9080     0.7160   -14.7840 ca         1 8PP       0.146100
      2 C2           0.2870     1.4380   -14.9110 ca         1 8PP      -0.164300
      3 C3           0.2700     2.6030   -15.6710 ca         1 8PP      -0.073000
      4 C4          -0.8780     3.0440   -16.3140 ca         1 8PP      -0.146000
      5 O           -0.9910    -0.4300   -14.0690 oh         1 8PP      -0.550100
      6 C5          -2.0470     2.3050   -16.1920 ca         1 8PP      -0.078000
      7 C6          -2.0650     1.1510   -15.4250 ca         1 8PP      -0.147000
      8 C7           1.5650     0.9560   -14.2670 c3         1 8PP       0.004100
      9 C8           1.4270     0.7570   -12.7830 c2         1 8PP      -0.242200
     10 C9           1.7280    -0.3340   -12.0670 c2         1 8PP      -0.112400
     11 C10          2.2950    -1.6010   -12.6410 c3         1 8PP      -0.062900
     12 C11          1.4880    -0.3450   -10.5810 c3         1 8PP      -0.042200
     13 C12          0.3760    -1.3200   -10.1580 c3         1 8PP      -0.036200
     14 C13          0.2060    -1.3260    -8.6710 c2         1 8PP      -0.225200
     15 C14         -0.8110    -0.8400    -7.9550 c2         1 8PP      -0.106400
     16 C15         -2.0430    -0.2150    -8.5400 c3         1 8PP      -0.056900
     17 C16         -0.7600    -0.8730    -6.4500 c3         1 8PP      -0.039200
     18 C17         -0.6450     0.5270    -5.8250 c3         1 8PP      -0.036200
     19 C18         -0.6140     0.4610    -4.3300 c2         1 8PP      -0.222200
     20 C19          0.4250     0.6820    -3.5200 c2         1 8PP      -0.111400
     21 C20          1.7960     1.0780    -3.9870 c3         1 8PP      -0.054900
     22 C21          0.2740     0.5290    -2.0290 c3         1 8PP      -0.038200
     23 C22          1.1190    -0.6110    -1.4420 c3         1 8PP      -0.035200
     24 C23          1.0000    -0.6680     0.0490 c2         1 8PP      -0.222200
     25 C24          0.4880    -1.6410     0.8070 c2         1 8PP      -0.111400
     26 C25         -0.0660    -2.9310     0.2770 c3         1 8PP      -0.054900
     27 C26          0.4440    -1.4890     2.3050 c3         1 8PP      -0.038200
     28 C27         -0.9810    -1.4820     2.8810 c3         1 8PP      -0.036200
     29 C28         -0.9620    -1.3190     4.3680 c2         1 8PP      -0.222200
     30 C29         -1.4450    -0.3100     5.0990 c2         1 8PP      -0.112400
     31 C30         -2.1730     0.8760     4.5380 c3         1 8PP      -0.054900
     32 C31         -1.2620    -0.3050     6.5940 c3         1 8PP      -0.038200
     33 C32         -0.1790     0.6850     7.0550 c3         1 8PP      -0.036200
     34 C33         -0.0580     0.7190     8.5460 c2         1 8PP      -0.222200
     35 C34          0.9240     0.2230     9.3040 c2         1 8PP      -0.111400
     36 C35          2.1480    -0.4590     8.7660 c3         1 8PP      -0.054900
     37 C36          0.8430     0.3130    10.8050 c3         1 8PP      -0.038200
     38 C37          0.6540    -1.0490    11.4910 c3         1 8PP      -0.035200
     39 C38          0.6480    -0.9090    12.9800 c2         1 8PP      -0.223200
     40 C39         -0.3930    -0.9940    13.8140 c2         1 8PP      -0.111400
     41 C40         -0.2020    -0.7500    15.2880 c3         1 8PP      -0.038200
     42 C41         -1.7990    -1.2980    13.3890 c3         1 8PP      -0.054900
     43 C42         -0.8560     0.5540    15.7720 c3         1 8PP      -0.036200
     44 C43         -0.6420     0.7730    17.2380 c2         1 8PP      -0.224200
     45 C44          0.1960     1.6350    17.8200 c2         1 8PP      -0.111400
     46 C45          0.3120     1.7150    19.3140 c3         1 8PP      -0.055900
     47 C46          1.0900     2.5840    17.0780 c3         1 8PP      -0.055900
     48 H3           1.1880     3.1730   -15.7650 ha         1 8PP       0.108000
     49 H4          -0.8590     3.9510   -16.9030 ha         1 8PP       0.115000
     50 HO          -0.2660    -0.4760   -13.4290 ho         1 8PP       0.476000
     51 H5          -2.9530     2.6290   -16.6880 ha         1 8PP       0.113000
     52 H6          -2.9770     0.5770   -15.3150 ha         1 8PP       0.126000
     53 H71          2.3440     1.7000   -14.4560 hc         1 8PP       0.056700
     54 H72          1.9010     0.0390   -14.7580 hc         1 8PP       0.056700
     55 H8           1.0320     1.6180   -12.2480 ha         1 8PP       0.177000
     56 H101         2.6130    -1.5030   -13.6760 hc         1 8PP       0.044033
     57 H102         3.1600    -1.9200   -12.0570 hc         1 8PP       0.044033
     58 H103         1.5730    -2.4190   -12.5970 hc         1 8PP       0.044033
     59 H111         1.2230     0.6570   -10.2380 hc         1 8PP       0.049200
     60 H112         2.4150    -0.6220   -10.0670 hc         1 8PP       0.049200
     61 H121         0.6300    -2.3290   -10.4950 hc         1 8PP       0.046700
     62 H122        -0.5480    -1.0440   -10.6700 hc         1 8PP       0.046700
     63 H13          1.0460    -1.7480    -8.1230 ha         1 8PP       0.165000
     64 H151        -2.1310    -0.3580    -9.6150 hc         1 8PP       0.040700
     65 H152        -2.9400    -0.6300    -8.0740 hc         1 8PP       0.040700
     66 H153        -2.0690     0.8610    -8.3540 hc         1 8PP       0.040700
     67 H161         0.0900    -1.4740    -6.1170 hc         1 8PP       0.045700
     68 H162        -1.6620    -1.3590    -6.0600 hc         1 8PP       0.045700
     69 H171        -1.5010     1.1330    -6.1360 hc         1 8PP       0.045700
     70 H172         0.2430     1.0190    -6.2260 hc         1 8PP       0.045700
     71 H18         -1.5530     0.1620    -3.8690 ha         1 8PP       0.165000
     72 H201         1.8280     1.3600    -5.0370 hc         1 8PP       0.039033
     73 H202         2.1710     1.9210    -3.4020 hc         1 8PP       0.039033
     74 H203         2.5100     0.2630    -3.8490 hc         1 8PP       0.039033
     75 H211        -0.7750     0.3550    -1.7760 hc         1 8PP       0.045200
     76 H212         0.5640     1.4660    -1.5390 hc         1 8PP       0.045200
     77 H221         2.1700    -0.4520    -1.7050 hc         1 8PP       0.045700
     78 H222         0.8230    -1.5510    -1.9110 hc         1 8PP       0.045700
     79 H23          1.3670     0.2200     0.5620 ha         1 8PP       0.164000
     80 H251         0.3790    -3.7820     0.7990 hc         1 8PP       0.039033
     81 H252        -1.1440    -2.9990     0.4430 hc         1 8PP       0.039033
     82 H253         0.1060    -3.0670    -0.7880 hc         1 8PP       0.039033
     83 H261         0.9450    -0.5640     2.5990 hc         1 8PP       0.044700
     84 H262         1.0020    -2.3100     2.7700 hc         1 8PP       0.044700
     85 H271        -1.4730    -2.4280     2.6320 hc         1 8PP       0.046200
     86 H272        -1.5610    -0.6960     2.3930 hc         1 8PP       0.046200
     87 H28         -0.4610    -2.1230     4.9040 ha         1 8PP       0.164000
     88 H301        -3.2180     0.8690     4.8600 hc         1 8PP       0.039033
     89 H302        -1.7460     1.8120     4.9040 hc         1 8PP       0.039033
     90 H303        -2.1630     0.9150     3.4510 hc         1 8PP       0.039033
     91 H311        -0.9860    -1.3030     6.9420 hc         1 8PP       0.045200
     92 H312        -2.2080    -0.0510     7.0850 hc         1 8PP       0.045200
     93 H321        -0.4280     1.6890     6.6970 hc         1 8PP       0.045700
     94 H322         0.7650     0.4140     6.5780 hc         1 8PP       0.045700
     95 H33         -0.8990     1.1790     9.0610 ha         1 8PP       0.165000
     96 H351         3.0490    -0.0550     9.2350 hc         1 8PP       0.039033
     97 H352         2.1370    -1.5280     8.9900 hc         1 8PP       0.039033
     98 H353         2.2590    -0.3580     7.6890 hc         1 8PP       0.039033
     99 H361         0.0150     0.9660    11.0940 hc         1 8PP       0.044700
    100 H362         1.7570     0.7770    11.1930 hc         1 8PP       0.044700
    101 H371         1.4690    -1.7190    11.2010 hc         1 8PP       0.045200
    102 H372        -0.2670    -1.5050    11.1220 hc         1 8PP       0.045200
    103 H38          1.6150    -0.6650    13.4150 ha         1 8PP       0.164000
    104 H401         0.8650    -0.7090    15.5220 hc         1 8PP       0.045200
    105 H402        -0.6180    -1.5890    15.8590 hc         1 8PP       0.045200
    106 H411        -1.8780    -1.6050    12.3480 hc         1 8PP       0.039033
    107 H412        -2.2220    -2.0940    14.0060 hc         1 8PP       0.039033
    108 H413        -2.4470    -0.4280    13.5190 hc         1 8PP       0.039033
    109 H421        -1.9310     0.5180    15.5730 hc         1 8PP       0.045200
    110 H422        -0.4610     1.3830    15.1810 hc         1 8PP       0.045200
    111 H43         -1.2250     0.1240    17.8880 ha         1 8PP       0.164000
    112 H451         0.0730     2.7200    19.6720 hc         1 8PP       0.038367
    113 H452        -0.3500     1.0120    19.8180 hc         1 8PP       0.038367
    114 H453         1.3350     1.5080    19.6400 hc         1 8PP       0.038367
    115 H461         0.9910     2.5220    15.9970 hc         1 8PP       0.038367
    116 H462         0.8860     3.6170    17.3730 hc         1 8PP       0.038367
    117 H463         2.1380     2.3950    17.3260 hc         1 8PP       0.038367
@<TRIPOS>BOND
     1     1     2 ar  
     2     1     5 1   
     3     1     7 ar  
     4     2     3 ar  
     5     2     8 1   
     6     3     4 ar  
     7     3    48 1   
     8     4     6 ar  
     9     4    49 1   
    10     5    50 1   
    11     6     7 ar  
    12     6    51 1   
    13     7    52 1   
    14     8     9 1   
    15     8    53 1   
    16     8    54 1   
    17     9    10 2   
    18     9    55 1   
    19    10    11 1   
    20    10    12 1   
    21    11    56 1   
    22    11    57 1   
    23    11    58 1   
    24    12    13 1   
    25    12    59 1   
    26    12    60 1   
    27    13    14 1   
    28    13    61 1   
    29    13    62 1   
    30    14    15 2   
    31    14    63 1   
    32    15    16 1   
    33    15    17 1   
    34    16    64 1   
    35    16    65 1   
    36    16    66 1   
    37    17    18 1   
    38    17    67 1   
    39    17    68 1   
    40    18    19 1   
    41    18    69 1   
    42    18    70 1   
    43    19    20 2   
    44    19    71 1   
    45    20    21 1   
    46    20    22 1   
    47    21    72 1   
    48    21    73 1   
    49    21    74 1   
    50    22    23 1   
    51    22    75 1   
    52    22    76 1   
    53    23    24 1   
    54    23    77 1   
    55    23    78 1   
    56    24    25 2   
    57    24    79 1   
    58    25    26 1   
    59    25    27 1   
    60    26    80 1   
    61    26    81 1   
    62    26    82 1   
    63    27    28 1   
    64    27    83 1   
    65    27    84 1   
    66    28    29 1   
    67    28    85 1   
    68    28    86 1   
    69    29    30 2   
    70    29    87 1   
    71    30    31 1   
    72    30    32 1   
    73    31    88 1   
    74    31    89 1   
    75    31    90 1   
    76    32    33 1   
    77    32    91 1   
    78    32    92 1   
    79    33    34 1   
    80    33    93 1   
    81    33    94 1   
    82    34    35 2   
    83    34    95 1   
    84    35    36 1   
    85    35    37 1   
    86    36    96 1   
    87    36    97 1   
    88    36    98 1   
    89    37    38 1   
    90    37    99 1   
    91    37   100 1   
    92    38    39 1   
    93    38   101 1   
    94    38   102 1   
    95    39    40 2   
    96    39   103 1   
    97    40    41 1   
    98    40    42 1   
    99    41    43 1   
   100    41   104 1   
   101    41   105 1   
   102    42   106 1   
   103    42   107 1   
   104    42   108 1   
   105    43    44 1   
   106    43   109 1   
   107    43   110 1   
   108    44    45 2   
   109    44   111 1   
   110    45    46 1   
   111    45    47 1   
   112    46   112 1   
   113    46   113 1   
   114    46   114 1   
   115    47   115 1   
   116    47   116 1   
   117    47   117 1   
@<TRIPOS>SUBSTRUCTURE
     1 8PP         1 TEMP              0 ****  ****    0 ROOT
