@<TRIPOS>MOLECULE
8PQ
   15    15     1     0     0
SMALL
bcc


@<TRIPOS>ATOM
      1 C4          -0.2200    -0.0020     0.0110 cc         1 8PQ      -0.230200
      2 C2          -1.0240    -1.1220    -0.0230 cd         1 8PQ      -0.049600
      3 BR           1.6410     0.0140     0.0360 br         1 8PQ      -0.060100
      4 C1          -1.0790     1.1130     0.0210 cc         1 8PQ       0.359600
      5 C           -0.7150     2.5540     0.0560 c3         1 8PQ      -0.122400
      6 C3          -0.6980    -2.5700    -0.0360 c3         1 8PQ      -0.032800
      7 N1          -2.2720    -0.6310    -0.0310 na         1 8PQ       0.002400
      8 N           -2.3320     0.7000    -0.0060 nd         1 8PQ      -0.519800
      9 H3          -0.0770     2.8220    -0.7870 hc         1 8PQ       0.053033
     10 H2          -1.6070     3.1750     0.0160 hc         1 8PQ       0.053033
     11 H1          -0.1690     2.8040     0.9660 hc         1 8PQ       0.053033
     12 H5          -0.2820    -2.8860     0.9210 hc         1 8PQ       0.057367
     13 H4          -1.5840    -3.1710    -0.2320 hc         1 8PQ       0.057367
     14 H6           0.0390    -2.7950    -0.8060 hc         1 8PQ       0.057367
     15 H           -3.1270    -1.1660    -0.0550 hn         1 8PQ       0.321700
@<TRIPOS>BOND
     1     1     2 2   
     2     1     3 1   
     3     1     4 1   
     4     2     6 1   
     5     2     7 1   
     6     4     5 1   
     7     4     8 2   
     8     5     9 1   
     9     5    10 1   
    10     5    11 1   
    11     6    12 1   
    12     6    13 1   
    13     6    14 1   
    14     7     8 1   
    15     7    15 1   
@<TRIPOS>SUBSTRUCTURE
     1 8PQ         1 TEMP              0 ****  ****    0 ROOT
