@<TRIPOS>MOLECULE
8PQ
   15    15     1     0     0
SMALL
No Charge or Current Charge


@<TRIPOS>ATOM
      1 C4          -0.2690     0.0080     0.0320 cc         1 8PQ      -0.164900
      2 C2          -1.0470    -1.1080    -0.0220 cd         1 8PQ      -0.100300
      3 Br           1.6180     0.0610     0.1140 br         1 8PQ      -0.060100
      4 C1          -1.1520     1.1050     0.0140 cc         1 8PQ       0.294300
      5 C           -0.6820     2.5320     0.0610 c3         1 8PQ      -0.122400
      6 C3          -0.6560    -2.5640    -0.0320 c3         1 8PQ      -0.032800
      7 N1          -2.3630    -0.6300    -0.0690 na         1 8PQ       0.002800
      8 N           -2.4240     0.7640    -0.0460 nd         1 8PQ      -0.519800
      9 H3          -0.0350     2.7540    -0.7960 hc         1 8PQ       0.053033
     10 H2          -1.5260     3.2310     0.0380 hc         1 8PQ       0.053033
     11 H1          -0.1110     2.7210     0.9770 hc         1 8PQ       0.053033
     12 H5          -0.0960    -2.8250     0.8740 hc         1 8PQ       0.057367
     13 H4          -1.5350    -3.2180    -0.0820 hc         1 8PQ       0.057367
     14 H6          -0.0210    -2.7920    -0.8960 hc         1 8PQ       0.057367
     15 H           -3.2080    -1.1990    -0.1160 hn         1 8PQ       0.372000
@<TRIPOS>BOND
     1     1     2 2   
     2     1     3 1   
     3     1     4 1   
     4     2     6 1   
     5     2     7 1   
     6     4     5 1   
     7     4     8 2   
     8     5     9 1   
     9     5    10 1   
    10     5    11 1   
    11     6    12 1   
    12     6    13 1   
    13     6    14 1   
    14     7     8 1   
    15     7    15 1   
@<TRIPOS>SUBSTRUCTURE
     1 8PQ         1 TEMP              0 ****  ****    0 ROOT
