@<TRIPOS>MOLECULE
8PR
   44    47     1     0     0
SMALL
No Charge or Current Charge


@<TRIPOS>ATOM
      1 FAA         -4.0600     4.3510     0.4600 f          1 8PR      -0.178000
      2 CAB         -3.6040     2.5900    -1.0780 ca         1 8PR      -0.149500
      3 CAC         -3.6080     2.1750     1.3190 ca         1 8PR      -0.149500
      4 CAD          2.2880     0.6550    -0.9160 ca         1 8PR      -0.207000
      5 CAE         -3.2920     1.2390    -1.3130 ca         1 8PR      -0.081500
      6 CAF         -3.2960     0.8240     1.0870 ca         1 8PR      -0.081500
      7 CAG          3.5430     1.2600    -1.1480 ca         1 8PR      -0.056000
      8 CAH          3.3070    -0.8750     0.7050 ca         1 8PR      -0.134000
      9 CAI         -3.5520    -3.5560    -0.2850 c6         1 8PR       0.147800
     10 CAJ         -3.9080    -2.0780    -0.0080 c6         1 8PR      -0.108400
     11 CAK         -1.1390    -3.0510    -0.1420 c6         1 8PR       0.153800
     12 CAL          6.6450     0.4100     0.4420 c5         1 8PR       0.372600
     13 CAM         -0.2540    -0.6520    -0.3840 c3         1 8PR       0.169600
     14 NAN         -2.2540    -3.9080     0.3360 n7         1 8PR      -0.844400
     15 OAO          0.9660    -1.0390     0.2720 os         1 8PR      -0.349100
     16 OAP          5.9230     1.2340    -0.5420 os         1 8PR      -0.343100
     17 OAQ          5.7200    -0.5760     1.0270 os         1 8PR      -0.342100
     18 CAR         -3.7600     3.0530     0.2360 ca         1 8PR       0.171000
     19 CAS          2.1690    -0.4160     0.0130 ca         1 8PR       0.151100
     20 CAT         -3.1360     0.3460    -0.2320 ca         1 8PR      -0.098300
     21 CAU          4.6490     0.7770    -0.4380 ca         1 8PR       0.011100
     22 CAV          4.5340    -0.2520     0.4530 ca         1 8PR       0.090100
     23 CAW         -1.4180    -1.5460     0.1310 c6         1 8PR      -0.096700
     24 CAX         -2.7830    -1.1270    -0.5000 c6         1 8PR      -0.011400
     25 HAB         -3.7230     3.2770    -1.9120 ha         1 8PR       0.133000
     26 HAC         -3.7300     2.5410     2.3350 ha         1 8PR       0.133000
     27 HAE         -3.1710     0.8900    -2.3370 ha         1 8PR       0.116000
     28 HAF         -3.1780     0.1520     1.9330 ha         1 8PR       0.116000
     29 HAG          3.6510     2.0790    -1.8560 ha         1 8PR       0.132000
     30 HAH          3.2340    -1.6930     1.4150 ha         1 8PR       0.147000
     31 HAI         -4.3440    -4.2080     0.1140 h1         1 8PR       0.054700
     32 HAIA        -3.5000    -3.7260    -1.3710 h1         1 8PR       0.054700
     33 HAJ         -4.8530    -1.8280    -0.5110 hc         1 8PR       0.048700
     34 HAJA        -4.0830    -1.9400     1.0670 hc         1 8PR       0.048700
     35 HAK         -0.2080    -3.3550     0.3610 h1         1 8PR       0.061700
     36 HAKA        -0.9920    -3.2080    -1.2220 h1         1 8PR       0.061700
     37 HAL          7.4720    -0.1120    -0.0530 h2         1 8PR       0.064200
     38 HALA         7.0320     1.0560     1.2390 h2         1 8PR       0.064200
     39 HAM         -0.4810     0.4000    -0.1660 h1         1 8PR       0.040200
     40 HAMA        -0.1640    -0.7700    -1.4720 h1         1 8PR       0.040200
     41 HNAN        -2.3400    -3.7850     1.3530 hn         1 8PR       0.406000
     42 HAW         -1.4640    -1.3940     1.2180 hc         1 8PR       0.062700
     43 HAX         -2.6980    -1.2660    -1.5880 hc         1 8PR       0.054700
     44 HAD          1.4260     1.0260    -1.4620 ha         1 8PR       0.123000
@<TRIPOS>BOND
     1     1    18 1   
     2     2     5 ar  
     3     2    18 ar  
     4     2    25 1   
     5     3     6 ar  
     6     3    18 ar  
     7     3    26 1   
     8     4     7 ar  
     9     4    19 ar  
    10     4    44 1   
    11     5    20 ar  
    12     5    27 1   
    13     6    20 ar  
    14     6    28 1   
    15     7    21 ar  
    16     7    29 1   
    17     8    19 ar  
    18     8    22 ar  
    19     8    30 1   
    20     9    10 1   
    21     9    14 1   
    22     9    31 1   
    23     9    32 1   
    24    10    24 1   
    25    10    33 1   
    26    10    34 1   
    27    11    14 1   
    28    11    23 1   
    29    11    35 1   
    30    11    36 1   
    31    12    16 1   
    32    12    17 1   
    33    12    37 1   
    34    12    38 1   
    35    13    15 1   
    36    13    23 1   
    37    13    39 1   
    38    13    40 1   
    39    14    41 1   
    40    15    19 1   
    41    16    21 1   
    42    17    22 1   
    43    20    24 1   
    44    21    22 ar  
    45    23    24 1   
    46    23    42 1   
    47    24    43 1   
@<TRIPOS>SUBSTRUCTURE
     1 8PR         1 TEMP              0 ****  ****    0 ROOT
