@<TRIPOS>MOLECULE
8PR
   44    47     1     0     0
SMALL
abcg2


@<TRIPOS>ATOM
      1 FAA         -3.9660     4.3070     0.4880 f          1 8PR      -0.178000
      2 CAB         -3.4530     2.5950    -1.0360 ca         1 8PR      -0.149500
      3 CAC         -3.5890     2.1480     1.3330 ca         1 8PR      -0.149500
      4 CAD          2.2100     0.5490    -0.9770 ca         1 8PR      -0.207000
      5 CAE         -3.1440     1.2590    -1.2540 ca         1 8PR      -0.081500
      6 CAF         -3.2810     0.8180     1.0900 ca         1 8PR      -0.081500
      7 CAG          3.4490     1.1520    -1.2500 ca         1 8PR      -0.056000
      8 CAH          3.2280    -0.8840     0.7050 ca         1 8PR      -0.134000
      9 CAI         -3.4980    -3.4850    -0.2990 c6         1 8PR       0.147800
     10 CAJ         -3.8450    -2.0300    -0.0060 c6         1 8PR      -0.108400
     11 CAK         -1.1430    -3.0250    -0.1260 c6         1 8PR       0.153800
     12 CAL          6.4950     0.5020     0.4730 c5         1 8PR       0.372600
     13 CAM         -0.2480    -0.6780    -0.3490 c3         1 8PR       0.169600
     14 NAN         -2.2280    -3.9040     0.2680 n7         1 8PR      -0.844400
     15 OAO          0.9470    -1.0740     0.3020 os         1 8PR      -0.349100
     16 OAP          5.8400     1.1080    -0.6290 os         1 8PR      -0.343100
     17 OAQ          5.6370    -0.5280     0.9520 os         1 8PR      -0.342100
     18 CAR         -3.6690     3.0160     0.2610 ca         1 8PR       0.171000
     19 CAS          2.1000    -0.4500    -0.0180 ca         1 8PR       0.151100
     20 CAT         -3.0520     0.3500    -0.2040 ca         1 8PR      -0.098300
     21 CAU          4.5370     0.7220    -0.5410 ca         1 8PR       0.011100
     22 CAV          4.4200    -0.2770     0.4160 ca         1 8PR       0.090100
     23 CAW         -1.3870    -1.5370     0.1680 c6         1 8PR      -0.096700
     24 CAX         -2.7190    -1.0980    -0.4660 c6         1 8PR      -0.011400
     25 HAB         -3.5220     3.2930    -1.8600 ha         1 8PR       0.133000
     26 HAC         -3.7660     2.5020     2.3400 ha         1 8PR       0.133000
     27 HAE         -2.9700     0.9210    -2.2690 ha         1 8PR       0.116000
     28 HAF         -3.2240     0.1380     1.9320 ha         1 8PR       0.116000
     29 HAG          3.5260     1.9260    -2.0010 ha         1 8PR       0.132000
     30 HAH          3.1440    -1.6630     1.4510 ha         1 8PR       0.147000
     31 HAI         -4.2850    -4.1450     0.0720 h1         1 8PR       0.054700
     32 HAIA        -3.4510    -3.6310    -1.3840 h1         1 8PR       0.054700
     33 HAJ         -4.7780    -1.7550    -0.5050 hc         1 8PR       0.048700
     34 HAJA        -4.0130    -1.9050     1.0690 hc         1 8PR       0.048700
     35 HAK         -0.2320    -3.3620     0.3690 h1         1 8PR       0.061700
     36 HAKA        -0.9790    -3.1450    -1.2040 h1         1 8PR       0.061700
     37 HAL          7.4420     0.0690     0.1500 h2         1 8PR       0.064200
     38 HALA         6.6610     1.2410     1.2650 h2         1 8PR       0.064200
     39 HAM         -0.4440     0.3820    -0.1550 h1         1 8PR       0.040200
     40 HAMA        -0.1510    -0.8010    -1.4370 h1         1 8PR       0.040200
     41 HNAN        -2.3010    -3.9070     1.2780 hn         1 8PR       0.406000
     42 HAW         -1.4600    -1.4080     1.2550 hc         1 8PR       0.062700
     43 HAX         -2.6170    -1.2200    -1.5530 hc         1 8PR       0.054700
     44 HAD          1.3480     0.8890    -1.5340 ha         1 8PR       0.123000
@<TRIPOS>BOND
     1     1    18 1   
     2     2     5 ar  
     3     2    18 ar  
     4     2    25 1   
     5     3     6 ar  
     6     3    18 ar  
     7     3    26 1   
     8     4     7 ar  
     9     4    19 ar  
    10     4    44 1   
    11     5    20 ar  
    12     5    27 1   
    13     6    20 ar  
    14     6    28 1   
    15     7    21 ar  
    16     7    29 1   
    17     8    19 ar  
    18     8    22 ar  
    19     8    30 1   
    20     9    10 1   
    21     9    14 1   
    22     9    31 1   
    23     9    32 1   
    24    10    24 1   
    25    10    33 1   
    26    10    34 1   
    27    11    14 1   
    28    11    23 1   
    29    11    35 1   
    30    11    36 1   
    31    12    16 1   
    32    12    17 1   
    33    12    37 1   
    34    12    38 1   
    35    13    15 1   
    36    13    23 1   
    37    13    39 1   
    38    13    40 1   
    39    14    41 1   
    40    15    19 1   
    41    16    21 1   
    42    17    22 1   
    43    20    24 1   
    44    21    22 ar  
    45    23    24 1   
    46    23    42 1   
    47    24    43 1   
@<TRIPOS>SUBSTRUCTURE
     1 8PR         1 TEMP              0 ****  ****    0 ROOT
