@<TRIPOS>MOLECULE
8PS
   48    49     1     0     0
SMALL
bcc


@<TRIPOS>ATOM
      1 C1          -0.5640    -0.7180     0.0860 ca         1 8PS      -0.163000
      2 C2          -0.0050     0.3420    -0.6220 ca         1 8PS      -0.037300
      3 C3          -0.6940     1.5510    -0.6850 ca         1 8PS      -0.158000
      4 C4          -1.9240     1.6910    -0.0610 ca         1 8PS      -0.092000
      5 C5          -2.4720     0.6280     0.6340 ca         1 8PS      -0.007900
      6 C6          -1.7960    -0.5900     0.7160 ca         1 8PS       0.145100
      7 C8          -4.8350     0.5990     0.5760 ca         1 8PS       0.119100
      8 C9          -6.0100     0.9160     1.2500 ca         1 8PS      -0.174500
      9 C10         -7.2290     0.7670     0.6080 ca         1 8PS      -0.097500
     10 C11         -7.2870     0.3080    -0.7030 ca         1 8PS      -0.157000
     11 C12         -6.1080    -0.0020    -1.3650 ca         1 8PS      -0.097500
     12 C13         -4.8770     0.1400    -0.7350 ca         1 8PS      -0.174500
     13 C14          1.3440     0.1860    -1.2680 c3         1 8PS      -0.034100
     14 C15          2.4880     0.2240    -0.2540 c3         1 8PS      -0.073400
     15 C16          3.8560     0.0880    -0.9110 c3         1 8PS      -0.075400
     16 C17          5.0050     0.1050     0.0900 c3         1 8PS      -0.074400
     17 C18          6.3740    -0.0120    -0.5690 c3         1 8PS      -0.074400
     18 C19          7.5240    -0.0040     0.4300 c3         1 8PS      -0.075400
     19 C20          8.8950    -0.1140    -0.2290 c3         1 8PS      -0.075400
     20 C21         10.0360    -0.0980     0.7790 c3         1 8PS      -0.088100
     21 O17         -2.2980    -1.6480     1.3790 oh         1 8PS      -0.491100
     22 O7          -3.6770     0.7520     1.2870 os         1 8PS      -0.261200
     23 H1          -0.0430    -1.6670     0.1450 ha         1 8PS       0.149000
     24 H3          -0.2690     2.3860    -1.2270 ha         1 8PS       0.137000
     25 H4          -2.4640     2.6290    -0.1110 ha         1 8PS       0.146000
     26 H9          -5.9640     1.2760     2.2700 ha         1 8PS       0.145500
     27 H10         -8.1400     1.0140     1.1370 ha         1 8PS       0.132500
     28 H11         -8.2400     0.1940    -1.2020 ha         1 8PS       0.134000
     29 H12         -6.1370    -0.3620    -2.3850 ha         1 8PS       0.132500
     30 H13         -3.9700    -0.1070    -1.2710 ha         1 8PS       0.145500
     31 H141         1.4880     0.9790    -2.0050 hc         1 8PS       0.048700
     32 H142         1.3840    -0.7600    -1.8150 hc         1 8PS       0.048700
     33 H151         2.3520    -0.5790     0.4770 hc         1 8PS       0.044200
     34 H152         2.4420     1.1620     0.3090 hc         1 8PS       0.044200
     35 H161         3.9920     0.9000    -1.6340 hc         1 8PS       0.037200
     36 H162         3.8900    -0.8420    -1.4890 hc         1 8PS       0.037200
     37 H171         4.8740    -0.7150     0.8050 hc         1 8PS       0.038700
     38 H172         4.9620     1.0290     0.6770 hc         1 8PS       0.038700
     39 H181         6.5050     0.8120    -1.2790 hc         1 8PS       0.036700
     40 H182         6.4150    -0.9320    -1.1630 hc         1 8PS       0.036700
     41 H191         7.3960    -0.8300     1.1380 hc         1 8PS       0.037700
     42 H192         7.4820     0.9140     1.0270 hc         1 8PS       0.037700
     43 H201         9.0210     0.7080    -0.9410 hc         1 8PS       0.036700
     44 H202         8.9390    -1.0340    -0.8200 hc         1 8PS       0.036700
     45 H211        10.0310     0.8240     1.3640 hc         1 8PS       0.031367
     46 H212         9.9550    -0.9310     1.4780 hc         1 8PS       0.031367
     47 H213        11.0080    -0.1710     0.2880 hc         1 8PS       0.031367
     48 H17         -3.1020    -1.4020     1.8520 ho         1 8PS       0.442000
@<TRIPOS>BOND
     1     1     2 ar  
     2     1     6 ar  
     3     1    23 1   
     4     2     3 ar  
     5     2    13 1   
     6     3     4 ar  
     7     3    24 1   
     8     4     5 ar  
     9     4    25 1   
    10     5     6 ar  
    11     5    22 1   
    12     6    21 1   
    13     7     8 ar  
    14     7    12 ar  
    15     7    22 1   
    16     8     9 ar  
    17     8    26 1   
    18     9    10 ar  
    19     9    27 1   
    20    10    11 ar  
    21    10    28 1   
    22    11    12 ar  
    23    11    29 1   
    24    12    30 1   
    25    13    14 1   
    26    13    31 1   
    27    13    32 1   
    28    14    15 1   
    29    14    33 1   
    30    14    34 1   
    31    15    16 1   
    32    15    35 1   
    33    15    36 1   
    34    16    17 1   
    35    16    37 1   
    36    16    38 1   
    37    17    18 1   
    38    17    39 1   
    39    17    40 1   
    40    18    19 1   
    41    18    41 1   
    42    18    42 1   
    43    19    20 1   
    44    19    43 1   
    45    19    44 1   
    46    20    45 1   
    47    20    46 1   
    48    20    47 1   
    49    21    48 1   
@<TRIPOS>SUBSTRUCTURE
     1 8PS         1 TEMP              0 ****  ****    0 ROOT
