@<TRIPOS>MOLECULE
8PS
   48    49     1     0     0
SMALL
No Charge or Current Charge


@<TRIPOS>ATOM
      1 C1          -0.5870    -1.6060     0.0100 ca         1 8PS      -0.145000
      2 C2          -0.0350    -0.5010    -0.6640 ca         1 8PS      -0.037300
      3 C3          -0.7690     0.6990    -0.7430 ca         1 8PS      -0.140000
      4 C4          -2.0460     0.7920    -0.1610 ca         1 8PS      -0.074000
      5 C5          -2.6010    -0.3220     0.4990 ca         1 8PS      -0.007900
      6 C6          -1.8610    -1.5170     0.5920 ca         1 8PS       0.145100
      7 C8          -4.9020     0.4410     0.5330 ca         1 8PS       0.119100
      8 C9          -5.7800     1.1380     1.3800 ca         1 8PS      -0.156500
      9 C10         -6.8720     1.8390     0.8400 ca         1 8PS      -0.079500
     10 C11         -7.0900     1.8360    -0.5490 ca         1 8PS      -0.139000
     11 C12         -6.2200     1.1290    -1.3980 ca         1 8PS      -0.079500
     12 C13         -5.1280     0.4280    -0.8570 ca         1 8PS      -0.156500
     13 C14          1.3500    -0.5960    -1.2900 c3         1 8PS      -0.034100
     14 C15          2.4630    -0.1900    -0.3000 c3         1 8PS      -0.073400
     15 C16          3.8790    -0.2770    -0.9090 c3         1 8PS      -0.075400
     16 C17          4.9900     0.1300     0.0840 c3         1 8PS      -0.074400
     17 C18          6.4060     0.0430    -0.5250 c3         1 8PS      -0.074400
     18 C19          7.5170     0.4500     0.4680 c3         1 8PS      -0.075400
     19 C20          8.9340     0.3630    -0.1410 c3         1 8PS      -0.075400
     20 C21         10.0420     0.7690     0.8490 c3         1 8PS      -0.088100
     21 O17         -2.3850    -2.5950     1.2450 oh         1 8PS      -0.530100
     22 O7          -3.8480    -0.2490     1.0890 os         1 8PS      -0.261200
     23 H1          -0.0270    -2.5350     0.0860 ha         1 8PS       0.131000
     24 H3          -0.3470     1.5630    -1.2510 ha         1 8PS       0.119000
     25 H4          -2.5960     1.7280    -0.2200 ha         1 8PS       0.128000
     26 H9          -5.6110     1.1370     2.4540 ha         1 8PS       0.127500
     27 H10         -7.5490     2.3830     1.4960 ha         1 8PS       0.114500
     28 H11         -7.9350     2.3790    -0.9670 ha         1 8PS       0.116000
     29 H12         -6.3940     1.1220    -2.4720 ha         1 8PS       0.114500
     30 H13         -4.4650    -0.1260    -1.5160 ha         1 8PS       0.127500
     31 H141         1.4060     0.0460    -2.1780 hc         1 8PS       0.048700
     32 H142         1.5350    -1.6190    -1.6400 hc         1 8PS       0.048700
     33 H151         2.4090    -0.8370     0.5840 hc         1 8PS       0.044200
     34 H152         2.2790     0.8360     0.0430 hc         1 8PS       0.044200
     35 H161         3.9320     0.3700    -1.7940 hc         1 8PS       0.037200
     36 H162         4.0610    -1.3030    -1.2520 hc         1 8PS       0.037200
     37 H171         4.9370    -0.5180     0.9680 hc         1 8PS       0.038700
     38 H172         4.8080     1.1560     0.4270 hc         1 8PS       0.038700
     39 H181         6.4590     0.6900    -1.4100 hc         1 8PS       0.036700
     40 H182         6.5880    -0.9840    -0.8680 hc         1 8PS       0.036700
     41 H191         7.4650    -0.1970     1.3520 hc         1 8PS       0.037700
     42 H192         7.3350     1.4760     0.8110 hc         1 8PS       0.037700
     43 H201         8.9910     1.0110    -1.0250 hc         1 8PS       0.036700
     44 H202         9.1200    -0.6630    -0.4830 hc         1 8PS       0.036700
     45 H211         9.9030     1.8040     1.1840 hc         1 8PS       0.031367
     46 H212        10.0340     0.1160     1.7300 hc         1 8PS       0.031367
     47 H213        11.0270     0.6920     0.3730 hc         1 8PS       0.031367
     48 H17         -3.2690    -2.3240     1.5770 ho         1 8PS       0.481000
@<TRIPOS>BOND
     1     1     2 ar  
     2     1     6 ar  
     3     1    23 1   
     4     2     3 ar  
     5     2    13 1   
     6     3     4 ar  
     7     3    24 1   
     8     4     5 ar  
     9     4    25 1   
    10     5     6 ar  
    11     5    22 1   
    12     6    21 1   
    13     7     8 ar  
    14     7    12 ar  
    15     7    22 1   
    16     8     9 ar  
    17     8    26 1   
    18     9    10 ar  
    19     9    27 1   
    20    10    11 ar  
    21    10    28 1   
    22    11    12 ar  
    23    11    29 1   
    24    12    30 1   
    25    13    14 1   
    26    13    31 1   
    27    13    32 1   
    28    14    15 1   
    29    14    33 1   
    30    14    34 1   
    31    15    16 1   
    32    15    35 1   
    33    15    36 1   
    34    16    17 1   
    35    16    37 1   
    36    16    38 1   
    37    17    18 1   
    38    17    39 1   
    39    17    40 1   
    40    18    19 1   
    41    18    41 1   
    42    18    42 1   
    43    19    20 1   
    44    19    43 1   
    45    19    44 1   
    46    20    45 1   
    47    20    46 1   
    48    20    47 1   
    49    21    48 1   
@<TRIPOS>SUBSTRUCTURE
     1 8PS         1 TEMP              0 ****  ****    0 ROOT
