@<TRIPOS>MOLECULE
8PT
   59    63     1     0     0
SMALL
abcg2


@<TRIPOS>ATOM
      1 C4           1.6450     2.8390    -0.1370 ca         1 8PT       0.295000
      2 C5           2.9890     2.5070    -0.0340 ca         1 8PT      -0.309200
      3 C6           3.3300     1.1610     0.1980 ca         1 8PT       0.458900
      4 C8           2.7340     4.6370    -0.3960 cc         1 8PT       0.431700
      5 C2           1.0620     0.7220     0.1920 ca         1 8PT       0.417900
      6 CAU          4.9060    -1.3750    -0.9250 c6         1 8PT      -0.091900
      7 CAV          5.3390    -2.8320    -0.7990 c6         1 8PT      -0.070900
      8 CAW          6.7350    -2.9430    -0.1950 c6         1 8PT      -0.078400
      9 CAX          6.8120    -2.2210     1.1460 c6         1 8PT      -0.070900
     10 CAY          6.3740    -0.7640     1.0270 c6         1 8PT      -0.091900
     11 CAK          4.9770    -0.6610     0.4250 c6         1 8PT       0.239500
     12 N6           4.5980     0.7380     0.3240 nu         1 8PT      -0.930100
     13 N1           2.3340     0.2950     0.3090 nb         1 8PT      -0.337000
     14 N7           3.6680     3.6890    -0.2050 na         1 8PT      -0.290600
     15 N9           1.5060     4.1760    -0.3640 nd         1 8PT      -0.652700
     16 N3           0.6440     1.9530    -0.0270 nb         1 8PT      -0.217000
     17 N2           0.1580    -0.2980     0.3110 nu         1 8PT      -0.937900
     18 CAM         -1.2330    -0.2930     0.2020 ca         1 8PT       0.293000
     19 CAR         -1.8650    -1.4930    -0.1730 ca         1 8PT      -0.104300
     20 CAS         -1.0590    -2.7190    -0.4980 c3         1 8PT      -0.048800
     21 CAQ         -3.2470    -1.5380    -0.2540 ca         1 8PT      -0.120000
     22 CAN         -2.0270     0.8140     0.4800 ca         1 8PT      -0.095000
     23 CAO         -3.4130     0.7460     0.3980 ca         1 8PT      -0.142000
     24 CAP         -4.0580    -0.4320     0.0290 ca         1 8PT       0.256000
     25 NAT         -5.4510    -0.5350    -0.0970 nh         1 8PT      -0.773400
     26 CAZ         -6.2200     0.6790     0.0940 c6         1 8PT       0.153800
     27 CBA         -7.6590     0.4560    -0.3350 c6         1 8PT       0.148600
     28 OBB         -8.2520    -0.6220     0.3510 os         1 8PT      -0.447000
     29 CBC         -7.5220    -1.8060     0.1300 c6         1 8PT       0.148600
     30 CBD         -6.0780    -1.6690     0.5720 c6         1 8PT       0.153800
     31 H1           3.0080     5.6690    -0.5560 h5         1 8PT       0.063800
     32 H2           5.5580    -0.8550    -1.6360 hc         1 8PT       0.045700
     33 H3           4.6250    -3.3680    -0.1650 hc         1 8PT       0.043700
     34 H4           7.0130    -3.9930    -0.0730 hc         1 8PT       0.040700
     35 H5           7.4640    -2.5060    -0.8860 hc         1 8PT       0.040700
     36 H6           6.1700    -2.7320     1.8710 hc         1 8PT       0.043700
     37 H7           7.8280    -2.2680     1.5450 hc         1 8PT       0.043700
     38 H8           6.3900    -0.2810     2.0070 hc         1 8PT       0.045700
     39 H9           7.0840    -0.2230     0.3910 hc         1 8PT       0.045700
     40 H10          4.2690    -1.1410     1.1070 h1         1 8PT       0.082700
     41 H11          5.3320     1.3940     0.1140 hn         1 8PT       0.481000
     42 H12          4.6630     3.8450    -0.1880 hn         1 8PT       0.354000
     43 H14          0.5980    -1.1960     0.4210 hn         1 8PT       0.506000
     44 H15         -0.5210    -3.1000     0.3750 hc         1 8PT       0.040033
     45 H16         -1.7000    -3.5230    -0.8530 hc         1 8PT       0.040033
     46 H17         -0.3140    -2.5240    -1.2730 hc         1 8PT       0.040033
     47 H18         -3.7010    -2.4670    -0.5770 ha         1 8PT       0.111000
     48 H19         -1.5700     1.7460     0.7730 ha         1 8PT       0.149000
     49 H20         -3.9740     1.6370     0.6450 ha         1 8PT       0.115000
     50 H21         -6.1970     1.0230     1.1410 h1         1 8PT       0.045950
     51 H22         -5.8050     1.4800    -0.5200 h1         1 8PT       0.045950
     52 H23         -8.2470     1.3480    -0.1170 h1         1 8PT       0.051200
     53 H24         -7.6920     0.2850    -1.4200 h1         1 8PT       0.051200
     54 H25         -8.0040    -2.6030     0.6980 h1         1 8PT       0.051200
     55 H26         -7.5510    -2.0830    -0.9340 h1         1 8PT       0.051200
     56 H27         -5.5630    -2.5940     0.3190 h1         1 8PT       0.045950
     57 H28         -6.0300    -1.5560     1.6660 h1         1 8PT       0.045950
     58 H13          3.8890    -1.3100    -1.3180 hc         1 8PT       0.045700
     59 H29          5.3070    -3.3160    -1.7780 hc         1 8PT       0.043700
@<TRIPOS>BOND
     1     1     2 ar  
     2     1    15 1   
     3     1    16 ar  
     4     2     3 ar  
     5     2    14 1   
     6     3    12 1   
     7     3    13 ar  
     8     4    14 1   
     9     4    15 2   
    10     4    31 1   
    11     5    13 ar  
    12     5    16 ar  
    13     5    17 1   
    14     6     7 1   
    15     6    11 1   
    16     6    32 1   
    17     6    58 1   
    18     7     8 1   
    19     7    33 1   
    20     7    59 1   
    21     8     9 1   
    22     8    34 1   
    23     8    35 1   
    24     9    10 1   
    25     9    36 1   
    26     9    37 1   
    27    10    11 1   
    28    10    38 1   
    29    10    39 1   
    30    11    12 1   
    31    11    40 1   
    32    12    41 1   
    33    14    42 1   
    34    17    18 1   
    35    17    43 1   
    36    18    19 ar  
    37    18    22 ar  
    38    19    20 1   
    39    19    21 ar  
    40    20    44 1   
    41    20    45 1   
    42    20    46 1   
    43    21    24 ar  
    44    21    47 1   
    45    22    23 ar  
    46    22    48 1   
    47    23    24 ar  
    48    23    49 1   
    49    24    25 1   
    50    25    26 1   
    51    25    30 1   
    52    26    27 1   
    53    26    50 1   
    54    26    51 1   
    55    27    28 1   
    56    27    52 1   
    57    27    53 1   
    58    28    29 1   
    59    29    30 1   
    60    29    54 1   
    61    29    55 1   
    62    30    56 1   
    63    30    57 1   
@<TRIPOS>SUBSTRUCTURE
     1 8PT         1 TEMP              0 ****  ****    0 ROOT
