@<TRIPOS>MOLECULE
8PT
   59    63     1     0     0
SMALL
No Charge or Current Charge


@<TRIPOS>ATOM
      1 C4           1.6880     2.8120    -0.2280 ca         1 8PT       0.295000
      2 C5           2.9880     2.4370    -0.0420 ca         1 8PT      -0.309200
      3 C6           3.2970     1.1060     0.2560 ca         1 8PT       0.458900
      4 C8           2.9040     4.6000    -0.5020 cc         1 8PT       0.431700
      5 C2           1.0590     0.6580     0.1780 ca         1 8PT       0.417900
      6 CAU          5.0930    -1.3160    -0.9320 c6         1 8PT      -0.091900
      7 CAV          5.6460    -2.7640    -0.9150 c6         1 8PT      -0.070900
      8 CAW          7.0500    -2.8200    -0.2640 c6         1 8PT      -0.078400
      9 CAX          7.0340    -2.2040     1.1580 c6         1 8PT      -0.070900
     10 CAY          6.4790    -0.7570     1.1340 c6         1 8PT      -0.091900
     11 CAK          5.0670    -0.7070     0.4960 c6         1 8PT       0.239500
     12 N6           4.6090     0.6910     0.4430 nu         1 8PT      -0.930100
     13 N1           2.3100     0.2010     0.3650 nb         1 8PT      -0.337000
     14 N7           3.7680     3.5510    -0.2110 na         1 8PT      -0.290600
     15 N9           1.6220     4.1740    -0.5190 nd         1 8PT      -0.652700
     16 N3           0.6890     1.9210    -0.1260 nb         1 8PT      -0.217000
     17 N2           0.0870    -0.3280     0.2680 nu         1 8PT      -0.937900
     18 CAM         -1.3160    -0.3440     0.2290 ca         1 8PT       0.293000
     19 CAR         -1.9880    -1.5120    -0.2060 ca         1 8PT      -0.104300
     20 CAS         -1.2170    -2.7500    -0.6660 c3         1 8PT      -0.048800
     21 CAQ         -3.3990    -1.5370    -0.2320 ca         1 8PT      -0.120000
     22 CAN         -2.0780     0.7630     0.6520 ca         1 8PT      -0.095000
     23 CAO         -3.4830     0.7260     0.6220 ca         1 8PT      -0.142000
     24 CAP         -4.1590    -0.4260     0.1770 ca         1 8PT       0.256000
     25 NAT         -5.5750    -0.4790     0.1400 nh         1 8PT      -0.773400
     26 CAZ         -6.3970     0.7650    -0.0220 c6         1 8PT       0.153800
     27 CBA         -7.8290     0.4620    -0.5570 c6         1 8PT       0.148600
     28 OBB         -8.4740    -0.5540     0.2460 os         1 8PT      -0.447000
     29 CBC         -7.7420    -1.8020     0.2510 c6         1 8PT       0.148600
     30 CBD         -6.3050    -1.6000     0.8210 c6         1 8PT       0.153800
     31 H1           3.2520     5.6100    -0.6840 h5         1 8PT       0.063800
     32 H2           5.7140    -0.6940    -1.5930 hc         1 8PT       0.045700
     33 H3           4.9550    -3.4170    -0.3640 hc         1 8PT       0.043700
     34 H4           7.3980    -3.8610    -0.2150 hc         1 8PT       0.040700
     35 H5           7.7710    -2.2790    -0.8930 hc         1 8PT       0.040700
     36 H6           6.4190    -2.8260     1.8240 hc         1 8PT       0.043700
     37 H7           8.0490    -2.2080     1.5770 hc         1 8PT       0.043700
     38 H8           6.4410    -0.3620     2.1590 hc         1 8PT       0.045700
     39 H9           7.1690    -0.1110     0.5740 hc         1 8PT       0.045700
     40 H10          4.3930    -1.3090     1.1280 h1         1 8PT       0.082700
     41 H11          5.3100     1.4200     0.3460 hn         1 8PT       0.481000
     42 H12          4.7760     3.6290    -0.1420 hn         1 8PT       0.354000
     43 H14          0.5000    -1.2580     0.2650 hn         1 8PT       0.506000
     44 H15         -0.6290    -3.1770     0.1560 hc         1 8PT       0.040033
     45 H16         -1.8890    -3.5380    -1.0280 hc         1 8PT       0.040033
     46 H17         -0.5310    -2.5080    -1.4860 hc         1 8PT       0.040033
     47 H18         -3.9110    -2.4270    -0.5860 ha         1 8PT       0.111000
     48 H19         -1.5880     1.6550     1.0290 ha         1 8PT       0.149000
     49 H20         -4.0400     1.5930     0.9640 ha         1 8PT       0.115000
     50 H21         -6.4840     1.2850     0.9430 h1         1 8PT       0.045950
     51 H22         -5.9060     1.4560    -0.7240 h1         1 8PT       0.045950
     52 H23         -8.4360     1.3780    -0.5360 h1         1 8PT       0.051200
     53 H24         -7.7720     0.1160    -1.5990 h1         1 8PT       0.051200
     54 H25         -8.2850    -2.5360     0.8620 h1         1 8PT       0.051200
     55 H26         -7.6840    -2.1900    -0.7760 h1         1 8PT       0.051200
     56 H27         -5.7590    -2.5480     0.7150 h1         1 8PT       0.045950
     57 H28         -6.3800    -1.3910     1.8980 h1         1 8PT       0.045950
     58 H13          4.0830    -1.3170    -1.3620 hc         1 8PT       0.045700
     59 H29          5.6950    -3.1560    -1.9400 hc         1 8PT       0.043700
@<TRIPOS>BOND
     1     1     2 ar  
     2     1    15 1   
     3     1    16 ar  
     4     2     3 ar  
     5     2    14 1   
     6     3    12 1   
     7     3    13 ar  
     8     4    14 1   
     9     4    15 2   
    10     4    31 1   
    11     5    13 ar  
    12     5    16 ar  
    13     5    17 1   
    14     6     7 1   
    15     6    11 1   
    16     6    32 1   
    17     6    58 1   
    18     7     8 1   
    19     7    33 1   
    20     7    59 1   
    21     8     9 1   
    22     8    34 1   
    23     8    35 1   
    24     9    10 1   
    25     9    36 1   
    26     9    37 1   
    27    10    11 1   
    28    10    38 1   
    29    10    39 1   
    30    11    12 1   
    31    11    40 1   
    32    12    41 1   
    33    14    42 1   
    34    17    18 1   
    35    17    43 1   
    36    18    19 ar  
    37    18    22 ar  
    38    19    20 1   
    39    19    21 ar  
    40    20    44 1   
    41    20    45 1   
    42    20    46 1   
    43    21    24 ar  
    44    21    47 1   
    45    22    23 ar  
    46    22    48 1   
    47    23    24 ar  
    48    23    49 1   
    49    24    25 1   
    50    25    26 1   
    51    25    30 1   
    52    26    27 1   
    53    26    50 1   
    54    26    51 1   
    55    27    28 1   
    56    27    52 1   
    57    27    53 1   
    58    28    29 1   
    59    29    30 1   
    60    29    54 1   
    61    29    55 1   
    62    30    56 1   
    63    30    57 1   
@<TRIPOS>SUBSTRUCTURE
     1 8PT         1 TEMP              0 ****  ****    0 ROOT
