@<TRIPOS>MOLECULE
8PU
   37    39     1     0     0
SMALL
bcc


@<TRIPOS>ATOM
      1 CAW          1.0240    -3.3720    -3.0220 c3         1 8PU       0.128700
      2 OAV          0.5460    -3.0220    -1.7320 os         1 8PU      -0.300900
      3 CAQ          1.2470    -2.1700    -0.9930 ca         1 8PU       0.252100
      4 CAR          2.4650    -1.6090    -1.3750 ca         1 8PU      -0.247000
      5 CAS          3.1200    -0.7140    -0.5450 ca         1 8PU      -0.012000
      6 CAT          2.5700    -0.3640     0.6780 ca         1 8PU      -0.089900
      7 BRAX         3.4630     0.8620     1.7960 br         1 8PU      -0.083100
      8 CAU          1.3610    -0.9050     1.0820 ca         1 8PU       0.031000
      9 CAP          0.7080    -1.7990     0.2490 ca         1 8PU      -0.319500
     10 SAM         -0.8530    -2.4530     0.7710 sy         1 8PU       1.312200
     11 OAN         -0.8860    -3.8950     0.6100 o          1 8PU      -0.606800
     12 OAO         -1.1290    -1.8840     2.0800 o          1 8PU      -0.606800
     13 NAH         -1.8800    -1.8250    -0.3730 nu         1 8PU      -0.699500
     14 CAC         -2.3080    -0.4880    -0.2000 ca         1 8PU       0.041600
     15 CAB         -1.5450     0.5380    -0.7130 ca         1 8PU       0.000000
     16 CAA         -1.9660     1.8460    -0.4890 ca         1 8PU      -0.287900
     17 CAJ         -1.4920     3.1570    -0.8080 cc         1 8PU       0.402900
     18 CAK         -0.2600     3.5180    -1.5520 c3         1 8PU      -0.118400
     19 NAL         -2.3030     4.0540    -0.3450 nd         1 8PU      -0.393200
     20 OAG         -3.3440     3.4020     0.2910 os         1 8PU      -0.015600
     21 CAF         -3.1390     2.0840     0.2070 ca         1 8PU       0.130100
     22 CAE         -3.9450     1.0790     0.7220 ca         1 8PU      -0.239000
     23 CAD         -3.5020    -0.2190     0.5220 ca         1 8PU       0.187100
     24 OAI         -4.1650    -1.2870     0.9730 oh         1 8PU      -0.488100
     25 H1           0.2900    -4.0540    -3.4410 h1         1 8PU       0.050700
     26 H2           1.1090    -2.4960    -3.6680 h1         1 8PU       0.050700
     27 H3           1.9900    -3.8780    -2.9700 h1         1 8PU       0.050700
     28 H4           2.9190    -1.8600    -2.3240 ha         1 8PU       0.143000
     29 H5           4.0630    -0.2950    -0.8700 ha         1 8PU       0.148000
     30 H6           0.9200    -0.6300     2.0300 ha         1 8PU       0.180000
     31 H7          -2.5740    -2.5010    -0.6750 hn         1 8PU       0.453800
     32 H8          -0.6450     0.3150    -1.2720 ha         1 8PU       0.156000
     33 H9          -0.3160     3.1540    -2.5780 hc         1 8PU       0.060367
     34 H10         -0.1130     4.5960    -1.5750 hc         1 8PU       0.060367
     35 H11          0.6130     3.0580    -1.0890 hc         1 8PU       0.060367
     36 H12         -4.8580     1.2940     1.2630 ha         1 8PU       0.161000
     37 H13         -4.9700    -1.0250     1.4350 ho         1 8PU       0.445000
@<TRIPOS>BOND
     1     1     2 1   
     2     1    25 1   
     3     1    26 1   
     4     1    27 1   
     5     2     3 1   
     6     3     4 ar  
     7     3     9 ar  
     8     4     5 ar  
     9     4    28 1   
    10     5     6 ar  
    11     5    29 1   
    12     6     7 1   
    13     6     8 ar  
    14     8     9 ar  
    15     8    30 1   
    16     9    10 1   
    17    10    11 2   
    18    10    12 2   
    19    10    13 1   
    20    13    14 1   
    21    13    31 1   
    22    14    15 ar  
    23    14    23 ar  
    24    15    16 ar  
    25    15    32 1   
    26    16    17 1   
    27    16    21 ar  
    28    17    18 1   
    29    17    19 2   
    30    18    33 1   
    31    18    34 1   
    32    18    35 1   
    33    19    20 1   
    34    20    21 1   
    35    21    22 ar  
    36    22    23 ar  
    37    22    36 1   
    38    23    24 1   
    39    24    37 1   
@<TRIPOS>SUBSTRUCTURE
     1 8PU         1 TEMP              0 ****  ****    0 ROOT
