@<TRIPOS>MOLECULE
8PU
   37    39     1     0     0
SMALL
No Charge or Current Charge


@<TRIPOS>ATOM
      1 CAW          0.8670    -3.4370    -3.1250 c3         1 8PU       0.151900
      2 OAV          0.5310    -3.0410    -1.7840 os         1 8PU      -0.324100
      3 CAQ          1.2670    -2.1140    -1.0720 ca         1 8PU       0.252100
      4 CAR          2.4110    -1.5000    -1.6300 ca         1 8PU      -0.229000
      5 CAS          3.1320    -0.5390    -0.9020 ca         1 8PU       0.006000
      6 CAT          2.7160    -0.1860     0.3890 ca         1 8PU      -0.089900
      7 BrAX         3.6840     1.1370     1.3750 br         1 8PU      -0.083100
      8 CAU          1.5860    -0.7930     0.9590 ca         1 8PU       0.049000
      9 CAP          0.8580    -1.7570     0.2280 ca         1 8PU      -0.319500
     10 SAM         -0.6090    -2.4710     0.9670 sy         1 8PU       1.170600
     11 OAN         -0.6780    -3.9100     0.7040 o          1 8PU      -0.536000
     12 OAO         -0.8090    -1.9270     2.3120 o          1 8PU      -0.536000
     13 NAH         -1.9210    -1.8730     0.1030 nu         1 8PU      -0.893100
     14 CAC         -2.3710    -0.5440     0.0420 ca         1 8PU       0.180000
     15 CAB         -1.4960     0.5140    -0.3070 ca         1 8PU       0.018000
     16 CAA         -2.0160     1.8150    -0.3350 ca         1 8PU      -0.287900
     17 CAJ         -1.4150     3.0740    -0.6330 cc         1 8PU       0.402900
     18 CAK          0.0260     3.2910    -0.9930 c3         1 8PU      -0.118400
     19 NAL         -2.3100     4.0600    -0.5410 nd         1 8PU      -0.294700
     20 OAG         -3.5730     3.4280    -0.1630 os         1 8PU      -0.114100
     21 CAF         -3.3150     2.0870    -0.0590 ca         1 8PU       0.130100
     22 CAE         -4.2220     1.0780     0.2720 ca         1 8PU      -0.221000
     23 CAD         -3.7440    -0.2490     0.3200 ca         1 8PU       0.187100
     24 OAI         -4.6120    -1.2600     0.6460 oh         1 8PU      -0.527100
     25 H1           0.1470    -4.1780    -3.4930 h1         1 8PU       0.050700
     26 H2           0.8440    -2.5750    -3.8040 h1         1 8PU       0.050700
     27 H3           1.8670    -3.8890    -3.1600 h1         1 8PU       0.050700
     28 H4           2.7560    -1.7480    -2.6290 ha         1 8PU       0.125000
     29 H5           4.0080    -0.0660    -1.3400 ha         1 8PU       0.130000
     30 H6           1.2780    -0.4990     1.9610 ha         1 8PU       0.162000
     31 H7          -2.6540    -2.5340     0.3280 hn         1 8PU       0.509000
     32 H8          -0.4580     0.3330    -0.5630 ha         1 8PU       0.138000
     33 H9           0.2650     2.7880    -1.9370 hc         1 8PU       0.060367
     34 H10          0.2510     4.3570    -1.1080 hc         1 8PU       0.060367
     35 H11          0.6820     2.8870    -0.2150 hc         1 8PU       0.060367
     36 H12         -5.2600     1.3210     0.4830 ha         1 8PU       0.143000
     37 H13         -5.4980    -0.8690     0.8010 ho         1 8PU       0.484000
@<TRIPOS>BOND
     1     1     2 1   
     2     1    25 1   
     3     1    26 1   
     4     1    27 1   
     5     2     3 1   
     6     3     4 ar  
     7     3     9 ar  
     8     4     5 ar  
     9     4    28 1   
    10     5     6 ar  
    11     5    29 1   
    12     6     7 1   
    13     6     8 ar  
    14     8     9 ar  
    15     8    30 1   
    16     9    10 1   
    17    10    11 2   
    18    10    12 2   
    19    10    13 1   
    20    13    14 1   
    21    13    31 1   
    22    14    15 ar  
    23    14    23 ar  
    24    15    16 ar  
    25    15    32 1   
    26    16    17 1   
    27    16    21 ar  
    28    17    18 1   
    29    17    19 2   
    30    18    33 1   
    31    18    34 1   
    32    18    35 1   
    33    19    20 1   
    34    20    21 1   
    35    21    22 ar  
    36    22    23 ar  
    37    22    36 1   
    38    23    24 1   
    39    24    37 1   
@<TRIPOS>SUBSTRUCTURE
     1 8PU         1 TEMP              0 ****  ****    0 ROOT
