@<TRIPOS>MOLECULE
8PV
   49    52     1     0     0
SMALL
bcc


@<TRIPOS>ATOM
      1 N3          -4.3390     0.7120     0.0040 ns         1 8PV      -0.571900
      2 C4          -5.3500     1.7060    -0.2850 c3         1 8PV       0.146300
      3 C5          -6.7230     1.1910     0.0520 ca         1 8PV      -0.113300
      4 C6          -7.5430     1.8830     0.9360 ca         1 8PV      -0.115500
      5 C7          -8.8180     1.4130     1.2360 ca         1 8PV      -0.130000
      6 C8          -9.2820     0.2430     0.6540 ca         1 8PV      -0.121000
      7 C10         -7.1970     0.0130    -0.5260 ca         1 8PV      -0.115500
      8 C13         -1.9100    -2.7000     0.6930 ca         1 8PV      -0.094000
      9 C15         -0.0450    -1.3980    -0.1230 ca         1 8PV       0.161600
     10 C17          2.2840    -2.0600     0.2600 c3         1 8PV       0.186500
     11 C20          5.4830    -0.4760    -0.1750 cc         1 8PV       0.437000
     12 C24          6.5050     0.5310     0.0760 ca         1 8PV      -0.089500
     13 C26          7.3190     2.5260     1.1110 ca         1 8PV       0.402700
     14 C28          8.7010     1.3980    -0.2910 ca         1 8PV       0.402700
     15 C2          -3.2160     0.5600    -0.7200 c          1 8PV       0.677700
     16 C9          -8.4660    -0.4580    -0.2280 ca         1 8PV      -0.130000
     17 C11         -2.3130    -0.5480    -0.2770 ca         1 8PV      -0.107600
     18 C12         -2.8030    -1.7080     0.3230 ca         1 8PV      -0.154000
     19 C14         -0.5460    -2.5540     0.4870 ca         1 8PV      -0.183000
     20 C18          3.6550    -1.6170    -0.1030 cc         1 8PV       0.361800
     21 N19          4.2680    -0.5320     0.4190 na         1 8PV      -0.441700
     22 N21          5.5940    -1.4760    -1.0100 nd         1 8PV      -0.344000
     23 N22          4.4520    -2.1880    -0.9660 nd         1 8PV      -0.327000
     24 C25          6.2930     1.6120     0.9260 ca         1 8PV      -0.224300
     25 N27          8.5030     2.4320     0.5210 nb         1 8PV      -0.652000
     26 C29          7.7470     0.4290    -0.5460 ca         1 8PV      -0.224300
     27 C30         -0.9540    -0.4040    -0.5080 ca         1 8PV      -0.148000
     28 H1          -4.4350     0.1980     0.8650 hn         1 8PV       0.318500
     29 H2          -5.1510     2.6310     0.2630 h1         1 8PV       0.061700
     30 H3          -5.2900     1.9490    -1.3470 h1         1 8PV       0.061700
     31 H4          -7.1860     2.7960     1.3970 ha         1 8PV       0.134000
     32 H5          -9.4440     1.9620     1.9270 ha         1 8PV       0.132500
     33 H6         -10.2730    -0.1240     0.8870 ha         1 8PV       0.132000
     34 H7          -6.5670    -0.5380    -1.2140 ha         1 8PV       0.134000
     35 H8          -2.2780    -3.6090     1.1490 ha         1 8PV       0.133000
     36 H9           2.1790    -2.0630     1.3530 h1         1 8PV       0.063700
     37 H10          2.1780    -3.0930    -0.0750 h1         1 8PV       0.063700
     38 H11          7.1680     3.3730     1.7700 h4         1 8PV       0.024600
     39 H12          9.6730     1.3330    -0.7670 h4         1 8PV       0.024600
     40 H13         -8.8210    -1.3720    -0.6860 ha         1 8PV       0.132500
     41 H14         -3.8640    -1.8590     0.4770 ha         1 8PV       0.135000
     42 H15          0.1170    -3.3500     0.8000 ha         1 8PV       0.133000
     43 H16          1.5700    -0.2690    -0.5460 hn         1 8PV       0.417800
     44 H17          3.8950     0.0820     1.1280 hn         1 8PV       0.312700
     45 H18          5.3560     1.7660     1.4440 ha         1 8PV       0.150000
     46 H19          7.9700    -0.3900    -1.2160 ha         1 8PV       0.150000
     47 H20         -0.5840     0.4970    -0.9840 ha         1 8PV       0.151000
     48 N16          1.2940    -1.2240    -0.3830 nu         1 8PV      -0.755600
     49 O1          -2.9360     1.2700    -1.6760 o          1 8PV      -0.599100
@<TRIPOS>BOND
     1     1     2 1   
     2     1    15 1   
     3     1    28 1   
     4     2     3 1   
     5     2    29 1   
     6     2    30 1   
     7     3     4 ar  
     8     3     7 ar  
     9     4     5 ar  
    10     4    31 1   
    11     5     6 ar  
    12     5    32 1   
    13     6    16 ar  
    14     6    33 1   
    15     7    16 ar  
    16     7    34 1   
    17     8    18 ar  
    18     8    19 ar  
    19     8    35 1   
    20     9    19 ar  
    21     9    27 ar  
    22     9    48 1   
    23    10    20 1   
    24    10    36 1   
    25    10    37 1   
    26    10    48 1   
    27    11    12 1   
    28    11    21 1   
    29    11    22 2   
    30    12    24 ar  
    31    12    26 ar  
    32    13    24 ar  
    33    13    25 ar  
    34    13    38 1   
    35    14    25 ar  
    36    14    26 ar  
    37    14    39 1   
    38    15    17 1   
    39    15    49 2   
    40    16    40 1   
    41    17    18 ar  
    42    17    27 ar  
    43    18    41 1   
    44    19    42 1   
    45    20    21 1   
    46    20    23 2   
    47    21    44 1   
    48    22    23 1   
    49    24    45 1   
    50    26    46 1   
    51    27    47 1   
    52    43    48 1   
@<TRIPOS>SUBSTRUCTURE
     1 8PV         1 TEMP              0 ****  ****    0 ROOT
