@<TRIPOS>MOLECULE
8PV
   49    52     1     0     0
SMALL
No Charge or Current Charge


@<TRIPOS>ATOM
      1 N3          -4.5130     0.6020    -0.2290 ns         1 8PV      -0.504900
      2 C4          -5.5310     1.5620    -0.6440 c3         1 8PV       0.146300
      3 C5          -6.9140     1.1100    -0.2050 ca         1 8PV      -0.113300
      4 C6          -7.4210     1.4950     1.0520 ca         1 8PV      -0.097500
      5 C7          -8.6980     1.0730     1.4610 ca         1 8PV      -0.112000
      6 C8          -9.4750     0.2620     0.6160 ca         1 8PV      -0.103000
      7 C10         -7.6960     0.2950    -1.0470 ca         1 8PV      -0.097500
      8 C13         -1.8980    -2.4960     1.2000 ca         1 8PV      -0.076000
      9 C15          0.0030    -1.2970     0.2640 ca         1 8PV       0.300000
     10 C17          2.4120    -2.2360     0.1710 c3         1 8PV       0.186500
     11 C20          5.6570    -0.5730    -0.2550 cc         1 8PV       0.437000
     12 C24          6.6400     0.4940    -0.0180 ca         1 8PV      -0.089500
     13 C26          7.3400     2.5850     1.0200 ca         1 8PV       0.337400
     14 C28          8.8300     1.5020    -0.3810 ca         1 8PV       0.337400
     15 C2          -3.1670     0.7350    -0.4810 c          1 8PV       0.610700
     16 C9          -8.9730    -0.1270    -0.6370 ca         1 8PV      -0.112000
     17 C11         -2.2630    -0.3720     0.0330 ca         1 8PV      -0.107600
     18 C12         -2.7670    -1.4930     0.7390 ca         1 8PV      -0.136000
     19 C14         -0.5170    -2.3980     0.9630 ca         1 8PV      -0.165000
     20 C18          3.8190    -1.7690    -0.1760 cc         1 8PV       0.361800
     21 N19          4.4070    -0.6250     0.2950 na         1 8PV      -0.492000
     22 N21          5.8250    -1.6350    -1.0260 nd         1 8PV      -0.344000
     23 N22          4.6720    -2.3860    -0.9780 nd         1 8PV      -0.327000
     24 C25          6.3640     1.5920     0.8270 ca         1 8PV      -0.141000
     25 N27          8.5570     2.5500     0.4300 nb         1 8PV      -0.652000
     26 C29          7.9130     0.4660    -0.6290 ca         1 8PV      -0.141000
     27 C30         -0.8680    -0.2950    -0.1940 ca         1 8PV      -0.130000
     28 H1          -4.8090    -0.2200     0.2790 hn         1 8PV       0.318500
     29 H2          -5.3000     2.5420    -0.2050 h1         1 8PV       0.061700
     30 H3          -5.5010     1.6650    -1.7380 h1         1 8PV       0.061700
     31 H4          -6.8240     2.1210     1.7130 ha         1 8PV       0.116000
     32 H5          -9.0840     1.3730     2.4330 ha         1 8PV       0.114500
     33 H6         -10.4630    -0.0650     0.9330 ha         1 8PV       0.114000
     34 H7          -7.3140    -0.0130    -2.0180 ha         1 8PV       0.116000
     35 H8          -2.2960    -3.3510     1.7420 ha         1 8PV       0.115000
     36 H9           2.4280    -2.5950     1.2090 h1         1 8PV       0.063700
     37 H10          2.1640    -3.0960    -0.4660 h1         1 8PV       0.063700
     38 H11          7.1410     3.4380     1.6690 h4         1 8PV       0.024600
     39 H12          9.8150     1.4920    -0.8460 h4         1 8PV       0.024600
     40 H13         -9.5730    -0.7560    -1.2910 ha         1 8PV       0.114500
     41 H14         -3.8290    -1.6030     0.9420 ha         1 8PV       0.117000
     42 H15          0.1380    -3.1820     1.3290 ha         1 8PV       0.115000
     43 H16          1.6480    -0.3430    -0.5130 hn         1 8PV       0.473000
     44 H17          3.9930     0.0430     0.9270 hn         1 8PV       0.363000
     45 H18          5.4100     1.6900     1.3360 ha         1 8PV       0.132000
     46 H19          8.2000    -0.3460    -1.2920 ha         1 8PV       0.132000
     47 H20         -0.4550     0.5540    -0.7320 ha         1 8PV       0.133000
     48 N16          1.3740    -1.1750     0.0160 nu         1 8PV      -0.949200
     49 O1          -2.7340     1.7050    -1.0920 o          1 8PV      -0.599100
@<TRIPOS>BOND
     1     1     2 1   
     2     1    15 1   
     3     1    28 1   
     4     2     3 1   
     5     2    29 1   
     6     2    30 1   
     7     3     4 ar  
     8     3     7 ar  
     9     4     5 ar  
    10     4    31 1   
    11     5     6 ar  
    12     5    32 1   
    13     6    16 ar  
    14     6    33 1   
    15     7    16 ar  
    16     7    34 1   
    17     8    18 ar  
    18     8    19 ar  
    19     8    35 1   
    20     9    19 ar  
    21     9    27 ar  
    22     9    48 1   
    23    10    20 1   
    24    10    36 1   
    25    10    37 1   
    26    10    48 1   
    27    11    12 1   
    28    11    21 1   
    29    11    22 2   
    30    12    24 ar  
    31    12    26 ar  
    32    13    24 ar  
    33    13    25 ar  
    34    13    38 1   
    35    14    25 ar  
    36    14    26 ar  
    37    14    39 1   
    38    15    17 1   
    39    15    49 2   
    40    16    40 1   
    41    17    18 ar  
    42    17    27 ar  
    43    18    41 1   
    44    19    42 1   
    45    20    21 1   
    46    20    23 2   
    47    21    44 1   
    48    22    23 1   
    49    24    45 1   
    50    26    46 1   
    51    27    47 1   
    52    43    48 1   
@<TRIPOS>SUBSTRUCTURE
     1 8PV         1 TEMP              0 ****  ****    0 ROOT
