@<TRIPOS>MOLECULE
8PW
   63    66     1     0     0
SMALL
bcc


@<TRIPOS>ATOM
      1 O26         -3.9940     2.9320    -0.6460 o          1 8PW      -0.573100
      2 C5          -2.8220     2.6500    -0.8350 c          1 8PW       0.707100
      3 C8          -1.7150     3.6640    -0.7520 cx         1 8PW      -0.204000
      4 C16         -1.8830     4.7450     0.2640 cx         1 8PW      -0.110400
      5 C17         -0.8750     3.6620     0.4970 cx         1 8PW      -0.110400
      6 C38         -1.0710     4.0220    -2.0730 c3         1 8PW      -0.054100
      7 N2          -2.4700     1.3850    -1.1590 n          1 8PW      -0.462800
      8 C7          -3.4830     0.3520    -1.1690 c5         1 8PW       0.038700
      9 C12         -4.0640     0.1550     0.2300 c          1 8PW       0.674100
     10 N14         -5.3320    -0.2920     0.2450 ns         1 8PW      -0.523900
     11 C13         -6.0070    -0.6270     1.4480 cx         1 8PW      -0.012900
     12 C18         -6.5520     0.4910     2.2460 c2         1 8PW       0.429200
     13 N19         -6.4720     1.6930     1.8700 n2         1 8PW      -0.711100
     14 C23         -6.8100    -1.9060     1.4460 cx         1 8PW      -0.111900
     15 C24         -5.5370    -1.8410     2.2070 cx         1 8PW      -0.111900
     16 O27         -3.3750     0.2860     1.2240 o          1 8PW      -0.590100
     17 C11         -2.7090    -0.9070    -1.5800 c5         1 8PW      -0.057400
     18 C10         -1.1170     0.8620    -1.2610 c5         1 8PW       0.144000
     19 C3          -1.3210    -0.6280    -1.0120 c5         1 8PW      -0.196900
     20 S1          -0.0860    -1.6630    -1.8040 sy         1 8PW       1.086300
     21 O20         -0.4180    -3.0560    -1.5460 o          1 8PW      -0.580800
     22 O21          0.0320    -1.2330    -3.1950 o          1 8PW      -0.580800
     23 C6           1.4390    -1.2190    -0.9850 ca         1 8PW      -0.250500
     24 C4           1.9090    -1.7510     0.2310 ca         1 8PW      -0.062300
     25 C9           1.2200    -2.8540     0.9990 c3         1 8PW       0.721200
     26 F28          1.7380    -2.9930     2.2230 f          1 8PW      -0.220633
     27 F29         -0.0840    -2.6210     1.1720 f          1 8PW      -0.220633
     28 F30          1.3550    -4.0320     0.3910 f          1 8PW      -0.220633
     29 C25          3.1000    -1.2840     0.7470 ca         1 8PW      -0.134000
     30 C22          2.1830    -0.2410    -1.6270 ca         1 8PW      -0.011000
     31 C37          3.3750     0.2310    -1.1030 ca         1 8PW      -0.216000
     32 C35          3.8370    -0.2930     0.0930 ca         1 8PW       0.190100
     33 O36          4.9710     0.0730     0.7000 os         1 8PW      -0.294900
     34 C31          5.7770     1.0580     0.1010 c3         1 8PW       0.059400
     35 C15          6.9620     1.2500     1.0210 c3         1 8PW       0.677900
     36 F34          7.6590     0.1230     1.1800 f          1 8PW      -0.223633
     37 F32          7.7860     2.1710     0.5150 f          1 8PW      -0.223633
     38 F33          6.5890     1.6590     2.2360 f          1 8PW      -0.223633
     39 H161        -1.5250     5.7330     0.0020 hc         1 8PW       0.080950
     40 H162        -2.7780     4.7440     0.8730 hc         1 8PW       0.080950
     41 H171        -1.0930     2.9260     1.2630 hc         1 8PW       0.080950
     42 H172         0.1780     3.8920     0.3900 hc         1 8PW       0.080950
     43 H381        -1.8070     4.4360    -2.7640 hc         1 8PW       0.040367
     44 H382        -0.3000     4.7770    -1.9210 hc         1 8PW       0.040367
     45 H383        -0.5970     3.1710    -2.5610 hc         1 8PW       0.040367
     46 H7          -4.2690     0.5700    -1.8950 h1         1 8PW       0.083700
     47 H101        -0.7040     1.0430    -2.2570 h1         1 8PW       0.059200
     48 H102        -0.4530     1.3120    -0.5250 h1         1 8PW       0.059200
     49 H111        -3.1550    -1.8230    -1.1980 hc         1 8PW       0.076200
     50 H112        -2.6810    -0.9730    -2.6690 hc         1 8PW       0.076200
     51 H14         -5.8780    -0.2330    -0.5990 hn         1 8PW       0.323500
     52 H231        -7.7460    -1.9100     1.9900 hc         1 8PW       0.081200
     53 H232        -6.8270    -2.4630     0.5170 hc         1 8PW       0.081200
     54 H241        -4.6730    -2.3590     1.8110 hc         1 8PW       0.081200
     55 H242        -5.5770    -1.8000     3.2880 hc         1 8PW       0.081200
     56 H19         -6.9070     2.3020     2.5570 hn         1 8PW       0.376400
     57 H3          -1.2820    -0.8450     0.0550 h1         1 8PW       0.134700
     58 H22          1.8450     0.1710    -2.5670 ha         1 8PW       0.167000
     59 H25          3.4970    -1.6750     1.6730 ha         1 8PW       0.176000
     60 H37          3.9140     0.9920    -1.6500 ha         1 8PW       0.149000
     61 H311         6.1380     0.7470    -0.8850 h1         1 8PW       0.077700
     62 H312         5.2500     2.0110    -0.0040 h1         1 8PW       0.077700
     63 HXT         -7.0300     0.1770     3.1790 h4         1 8PW      -0.039200
@<TRIPOS>BOND
     1     1     2 2   
     2     2     3 1   
     3     2     7 1   
     4     3     4 1   
     5     3     5 1   
     6     3     6 1   
     7     4     5 1   
     8     4    39 1   
     9     4    40 1   
    10     5    41 1   
    11     5    42 1   
    12     6    43 1   
    13     6    44 1   
    14     6    45 1   
    15     7     8 1   
    16     7    18 1   
    17     8     9 1   
    18     8    17 1   
    19     8    46 1   
    20     9    10 1   
    21     9    16 2   
    22    10    11 1   
    23    10    51 1   
    24    11    12 1   
    25    11    14 1   
    26    11    15 1   
    27    12    13 2   
    28    12    63 1   
    29    13    56 1   
    30    14    15 1   
    31    14    52 1   
    32    14    53 1   
    33    15    54 1   
    34    15    55 1   
    35    17    19 1   
    36    17    49 1   
    37    17    50 1   
    38    18    19 1   
    39    18    47 1   
    40    18    48 1   
    41    19    20 1   
    42    19    57 1   
    43    20    21 2   
    44    20    22 2   
    45    20    23 1   
    46    23    24 ar  
    47    23    30 ar  
    48    24    25 1   
    49    24    29 ar  
    50    25    26 1   
    51    25    27 1   
    52    25    28 1   
    53    29    32 ar  
    54    29    59 1   
    55    30    31 ar  
    56    30    58 1   
    57    31    32 ar  
    58    31    60 1   
    59    32    33 1   
    60    33    34 1   
    61    34    35 1   
    62    34    61 1   
    63    34    62 1   
    64    35    36 1   
    65    35    37 1   
    66    35    38 1   
@<TRIPOS>SUBSTRUCTURE
     1 8PW         1 TEMP              0 ****  ****    0 ROOT
