@<TRIPOS>MOLECULE
8PW
   63    66     1     0     0
SMALL
No Charge or Current Charge


@<TRIPOS>ATOM
      1 O26         -3.7570     3.4320    -0.6800 o          1 8PW      -0.573100
      2 C5          -2.6360     2.9460    -0.7620 c          1 8PW       0.640100
      3 C8          -1.3780     3.8120    -0.7180 cx         1 8PW      -0.204000
      4 C16         -1.3510     4.9020     0.3420 cx         1 8PW      -0.110400
      5 C17         -0.4710     3.6890     0.4950 cx         1 8PW      -0.110400
      6 C38         -0.7830     4.1430    -2.0880 c3         1 8PW      -0.054100
      7 N2          -2.4560     1.5270    -0.9160 n          1 8PW      -0.395800
      8 C7          -3.6000     0.5240    -0.9620 c5         1 8PW       0.038700
      9 C12         -4.2330     0.2300     0.4360 c          1 8PW       0.607100
     10 N14         -5.4130    -0.4710     0.2690 ns         1 8PW      -0.456900
     11 C13         -6.2660    -0.9080     1.3540 cx         1 8PW      -0.012900
     12 C18         -6.9330     0.2220     2.0920 c2         1 8PW       0.429200
     13 N19         -7.9300     0.8620     1.5920 n2         1 8PW      -0.711100
     14 C23         -7.0000    -2.2170     1.1590 cx         1 8PW      -0.111900
     15 C24         -5.8320    -2.1440     2.1110 cx         1 8PW      -0.111900
     16 O27         -3.8040     0.5670     1.5340 o          1 8PW      -0.590100
     17 C11         -2.8800    -0.7510    -1.5030 c5         1 8PW      -0.057400
     18 C10         -1.1350     0.8750    -1.1000 c5         1 8PW       0.144000
     19 C3          -1.4840    -0.6130    -0.8340 c5         1 8PW      -0.307700
     20 S1          -0.2110    -1.7150    -1.6060 sy         1 8PW       1.055500
     21 O20         -0.5320    -3.0850    -1.1940 o          1 8PW      -0.510000
     22 O21         -0.1730    -1.3770    -3.0350 o          1 8PW      -0.510000
     23 C6           1.3920    -1.2210    -0.8730 ca         1 8PW      -0.250500
     24 C4           1.9050    -1.6870     0.3860 ca         1 8PW      -0.062300
     25 C9           1.1810    -2.6980     1.3150 c3         1 8PW       0.357300
     26 F28          1.7390    -2.7730     2.5460 f          1 8PW      -0.099333
     27 F29         -0.1140    -2.3790     1.5310 f          1 8PW      -0.099333
     28 F30          1.2170    -3.9540     0.8160 f          1 8PW      -0.099333
     29 C25          3.1710    -1.2010     0.8060 ca         1 8PW      -0.116000
     30 C22          2.1450    -0.2850    -1.6210 ca         1 8PW       0.007000
     31 C37          3.3850     0.1830    -1.1690 ca         1 8PW      -0.198000
     32 C35          3.9040    -0.2800     0.0490 ca         1 8PW       0.190100
     33 O36          5.1220     0.1390     0.5450 os         1 8PW      -0.318100
     34 C31          5.9560     1.0900    -0.1530 c3         1 8PW       0.082600
     35 C15          7.2390     1.3420     0.6700 c3         1 8PW       0.314000
     36 F34          7.9420     0.1980     0.8420 f          1 8PW      -0.102333
     37 F32          8.0410     2.2300     0.0400 f          1 8PW      -0.102333
     38 F33          6.9460     1.8420     1.8930 f          1 8PW      -0.102333
     39 H161        -0.8700     5.8470     0.0980 hc         1 8PW       0.080950
     40 H162        -2.2020     4.9930     1.0140 hc         1 8PW       0.080950
     41 H171        -0.7380     2.9720     1.2690 hc         1 8PW       0.080950
     42 H172         0.6000     3.8170     0.3500 hc         1 8PW       0.080950
     43 H381        -1.5160     4.6680    -2.7120 hc         1 8PW       0.040367
     44 H382         0.1000     4.7880    -1.9990 hc         1 8PW       0.040367
     45 H383        -0.4760     3.2380    -2.6240 hc         1 8PW       0.040367
     46 H7          -4.3980     0.8560    -1.6400 h1         1 8PW       0.083700
     47 H101        -0.7730     1.0380    -2.1250 h1         1 8PW       0.059200
     48 H102        -0.3710     1.2350    -0.4000 h1         1 8PW       0.059200
     49 H111        -3.3900    -1.6880    -1.2450 hc         1 8PW       0.076200
     50 H112        -2.8120    -0.7140    -2.5980 hc         1 8PW       0.076200
     51 H14         -5.6900    -0.6710    -0.6850 hn         1 8PW       0.323500
     52 H231        -7.9950    -2.3110     1.5870 hc         1 8PW       0.081200
     53 H232        -6.8560    -2.7530     0.2240 hc         1 8PW       0.081200
     54 H241        -4.9030    -2.6250     1.8140 hc         1 8PW       0.081200
     55 H242        -6.0440    -2.1900     3.1770 hc         1 8PW       0.081200
     56 H19         -8.2290     1.5880     2.2590 hn         1 8PW       0.376400
     57 H3          -1.5110    -0.8350     0.2370 h1         1 8PW       0.134700
     58 H22          1.7750     0.0970    -2.5720 ha         1 8PW       0.149000
     59 H25          3.6140    -1.5340     1.7400 ha         1 8PW       0.158000
     60 H37          3.9250     0.9010    -1.7790 ha         1 8PW       0.131000
     61 H311         6.2380     0.7070    -1.1420 h1         1 8PW       0.077700
     62 H312         5.4280     2.0430    -0.2870 h1         1 8PW       0.077700
     63 HXT         -6.5460     0.4860     3.0720 h4         1 8PW      -0.039200
@<TRIPOS>BOND
     1     1     2 2   
     2     2     3 1   
     3     2     7 1   
     4     3     4 1   
     5     3     5 1   
     6     3     6 1   
     7     4     5 1   
     8     4    39 1   
     9     4    40 1   
    10     5    41 1   
    11     5    42 1   
    12     6    43 1   
    13     6    44 1   
    14     6    45 1   
    15     7     8 1   
    16     7    18 1   
    17     8     9 1   
    18     8    17 1   
    19     8    46 1   
    20     9    10 1   
    21     9    16 2   
    22    10    11 1   
    23    10    51 1   
    24    11    12 1   
    25    11    14 1   
    26    11    15 1   
    27    12    13 2   
    28    12    63 1   
    29    13    56 1   
    30    14    15 1   
    31    14    52 1   
    32    14    53 1   
    33    15    54 1   
    34    15    55 1   
    35    17    19 1   
    36    17    49 1   
    37    17    50 1   
    38    18    19 1   
    39    18    47 1   
    40    18    48 1   
    41    19    20 1   
    42    19    57 1   
    43    20    21 2   
    44    20    22 2   
    45    20    23 1   
    46    23    24 ar  
    47    23    30 ar  
    48    24    25 1   
    49    24    29 ar  
    50    25    26 1   
    51    25    27 1   
    52    25    28 1   
    53    29    32 ar  
    54    29    59 1   
    55    30    31 ar  
    56    30    58 1   
    57    31    32 ar  
    58    31    60 1   
    59    32    33 1   
    60    33    34 1   
    61    34    35 1   
    62    34    61 1   
    63    34    62 1   
    64    35    36 1   
    65    35    37 1   
    66    35    38 1   
@<TRIPOS>SUBSTRUCTURE
     1 8PW         1 TEMP              0 ****  ****    0 ROOT
