@<TRIPOS>MOLECULE
8PX
   40    42     1     0     0
SMALL
No Charge or Current Charge


@<TRIPOS>ATOM
      1 CAY          3.6510     2.6160    -2.0160 c3         1 8PX       0.148900
      2 OAI          2.9350     2.2130    -0.8360 os         1 8PX      -0.349100
      3 CAD          2.7330     0.8800    -0.5080 ca         1 8PX       0.170100
      4 CAE          3.2500    -0.1680    -1.3130 ca         1 8PX      -0.215000
      5 CAF          2.9870    -1.4820    -0.9220 ca         1 8PX       0.125100
      6 OAG          3.3900    -2.6230    -1.5600 os         1 8PX      -0.116100
      7 NAL          2.8660    -3.7480    -0.7680 nc         1 8PX      -0.298700
      8 CAJ          2.2080    -3.1970     0.2580 cd         1 8PX       0.406900
      9 CAK          1.5190    -4.0370     1.2940 c3         1 8PX      -0.119400
     10 CAA          2.2670    -1.7660     0.1890 ca         1 8PX      -0.285900
     11 CAB          1.7380    -0.7690     1.0190 ca         1 8PX       0.044000
     12 CAC          1.9710     0.5830     0.6640 ca         1 8PX       0.165000
     13 NAH          1.4510     1.6420     1.4270 nu         1 8PX      -0.860100
     14 SAM         -0.0900     1.7700     2.0770 sy         1 8PX       1.159600
     15 OAN         -0.1290     0.7830     3.1590 o          1 8PX      -0.530000
     16 OAO         -0.2080     3.2060     2.3310 o          1 8PX      -0.530000
     17 CAP         -1.1850     1.2900     0.7490 ca         1 8PX      -0.337500
     18 CAU         -2.0180     0.1650     0.9190 ca         1 8PX       0.055000
     19 CAT         -2.8620    -0.2450    -0.1250 ca         1 8PX      -0.086900
     20 BrAX        -3.9890    -1.7730     0.1050 br         1 8PX      -0.082100
     21 CAS         -2.8770     0.4580    -1.3390 ca         1 8PX       0.004000
     22 CAR         -2.0420     1.5750    -1.5110 ca         1 8PX      -0.228000
     23 CAQ         -1.1870     1.9960    -0.4690 ca         1 8PX       0.250100
     24 OAV         -0.3370     3.0740    -0.6230 os         1 8PX      -0.339100
     25 CAW         -0.2020     3.7830    -1.8660 c3         1 8PX       0.154900
     26 H1           4.6840     2.2450    -1.9930 h1         1 8PX       0.048033
     27 H2           3.1580     2.2360    -2.9200 h1         1 8PX       0.048033
     28 H3           3.6860     3.7110    -2.0840 h1         1 8PX       0.048033
     29 H4           3.8300     0.0170    -2.2110 ha         1 8PX       0.144000
     30 H5           1.9340    -3.8390     2.2890 hc         1 8PX       0.062033
     31 H6           0.4470    -3.8120     1.3230 hc         1 8PX       0.062033
     32 H7           1.6340    -5.1070     1.0870 hc         1 8PX       0.062033
     33 H8           1.1720    -1.0330     1.9080 ha         1 8PX       0.152000
     34 H9           1.5880     2.5520     1.0030 hn         1 8PX       0.502000
     35 H10         -2.0180    -0.3970     1.8520 ha         1 8PX       0.161000
     36 H11         -3.5320     0.1370    -2.1470 ha         1 8PX       0.129000
     37 H12         -2.0710     2.0950    -2.4630 ha         1 8PX       0.122000
     38 H13         -1.1550     4.2410    -2.1610 h1         1 8PX       0.050033
     39 H14          0.5420     4.5830    -1.7670 h1         1 8PX       0.050033
     40 H15          0.1300     3.1090    -2.6650 h1         1 8PX       0.050033
@<TRIPOS>BOND
     1     1     2 1   
     2     1    26 1   
     3     1    27 1   
     4     1    28 1   
     5     2     3 1   
     6     3     4 ar  
     7     3    12 ar  
     8     4     5 ar  
     9     4    29 1   
    10     5     6 1   
    11     5    10 ar  
    12     6     7 1   
    13     7     8 2   
    14     8     9 1   
    15     8    10 1   
    16     9    30 1   
    17     9    31 1   
    18     9    32 1   
    19    10    11 ar  
    20    11    12 ar  
    21    11    33 1   
    22    12    13 1   
    23    13    14 1   
    24    13    34 1   
    25    14    15 2   
    26    14    16 2   
    27    14    17 1   
    28    17    18 ar  
    29    17    23 ar  
    30    18    19 ar  
    31    18    35 1   
    32    19    20 1   
    33    19    21 ar  
    34    21    22 ar  
    35    21    36 1   
    36    22    23 ar  
    37    22    37 1   
    38    23    24 1   
    39    24    25 1   
    40    25    38 1   
    41    25    39 1   
    42    25    40 1   
@<TRIPOS>SUBSTRUCTURE
     1 8PX         1 TEMP              0 ****  ****    0 ROOT
