@<TRIPOS>MOLECULE
8PX
   40    42     1     0     0
SMALL
abcg2


@<TRIPOS>ATOM
      1 CAY          1.8350     1.6030    -2.5990 c3         1 8PX       0.148900
      2 OAI          1.7340     1.4430    -1.1950 os         1 8PX      -0.349100
      3 CAD          2.0290     0.2590    -0.6550 ca         1 8PX       0.170100
      4 CAE          2.5230    -0.8170    -1.3770 ca         1 8PX      -0.215000
      5 CAF          2.7770    -1.9710    -0.6480 ca         1 8PX       0.125100
      6 OAG          3.2500    -3.1280    -1.1220 os         1 8PX      -0.116100
      7 NAL          3.3660    -4.0210    -0.0720 nc         1 8PX      -0.298700
      8 CAJ          2.9750    -3.4220     1.0070 cd         1 8PX       0.406900
      9 CAK          2.9720    -4.1060     2.3250 c3         1 8PX      -0.119400
     10 CAA          2.5750    -2.0810     0.7160 ca         1 8PX      -0.285900
     11 CAB          2.0920    -0.9910     1.4370 ca         1 8PX       0.044000
     12 CAC          1.8120     0.1690     0.7510 ca         1 8PX       0.165000
     13 NAH          1.2920     1.2820     1.4570 nu         1 8PX      -0.860100
     14 SAM         -0.3400     1.3160     1.7700 sy         1 8PX       1.159600
     15 OAN         -0.6900     0.0180     2.3180 o          1 8PX      -0.530000
     16 OAO         -0.5810     2.5110     2.5520 o          1 8PX      -0.530000
     17 CAP         -1.1500     1.4490     0.1970 ca         1 8PX      -0.337500
     18 CAU         -1.8870     0.3700    -0.2610 ca         1 8PX       0.055000
     19 CAT         -2.5010     0.4500    -1.5000 ca         1 8PX      -0.086900
     20 BRAX        -3.5050    -1.0120    -2.1390 br         1 8PX      -0.082100
     21 CAS         -2.3790     1.5950    -2.2700 ca         1 8PX       0.004000
     22 CAR         -1.6360     2.6710    -1.8090 ca         1 8PX      -0.228000
     23 CAQ         -1.0040     2.6140    -0.5700 ca         1 8PX       0.250100
     24 OAV         -0.2470     3.5840    -0.0630 os         1 8PX      -0.339100
     25 CAW         -0.0090     4.7510    -0.8360 c3         1 8PX       0.154900
     26 H1           2.8620     1.4780    -2.9470 h1         1 8PX       0.048033
     27 H2           1.1850     0.9040    -3.1300 h1         1 8PX       0.048033
     28 H3           1.5120     2.6180    -2.8160 h1         1 8PX       0.048033
     29 H4           2.7020    -0.7760    -2.4420 ha         1 8PX       0.144000
     30 H5           3.6000    -3.5670     3.0350 hc         1 8PX       0.062033
     31 H6           1.9630    -4.1310     2.7360 hc         1 8PX       0.062033
     32 H7           3.3390    -5.1260     2.2400 hc         1 8PX       0.062033
     33 H8           1.9430    -1.0390     2.5070 ha         1 8PX       0.152000
     34 H9           1.6460     2.1920     1.1780 hn         1 8PX       0.502000
     35 H10         -1.9720    -0.5210     0.3460 ha         1 8PX       0.161000
     36 H11         -2.8550     1.6680    -3.2380 ha         1 8PX       0.129000
     37 H12         -1.5560     3.5460    -2.4380 ha         1 8PX       0.122000
     38 H13         -0.9340     5.2920    -1.0400 h1         1 8PX       0.050033
     39 H14          0.6470     5.3800    -0.2410 h1         1 8PX       0.050033
     40 H15          0.4850     4.5120    -1.7800 h1         1 8PX       0.050033
@<TRIPOS>BOND
     1     1     2 1   
     2     1    26 1   
     3     1    27 1   
     4     1    28 1   
     5     2     3 1   
     6     3     4 ar  
     7     3    12 ar  
     8     4     5 ar  
     9     4    29 1   
    10     5     6 1   
    11     5    10 ar  
    12     6     7 1   
    13     7     8 2   
    14     8     9 1   
    15     8    10 1   
    16     9    30 1   
    17     9    31 1   
    18     9    32 1   
    19    10    11 ar  
    20    11    12 ar  
    21    11    33 1   
    22    12    13 1   
    23    13    14 1   
    24    13    34 1   
    25    14    15 2   
    26    14    16 2   
    27    14    17 1   
    28    17    18 ar  
    29    17    23 ar  
    30    18    19 ar  
    31    18    35 1   
    32    19    20 1   
    33    19    21 ar  
    34    21    22 ar  
    35    21    36 1   
    36    22    23 ar  
    37    22    37 1   
    38    23    24 1   
    39    24    25 1   
    40    25    38 1   
    41    25    39 1   
    42    25    40 1   
@<TRIPOS>SUBSTRUCTURE
     1 8PX         1 TEMP              0 ****  ****    0 ROOT
