@<TRIPOS>MOLECULE
8PZ
   57    60     1     0     0
SMALL
No Charge or Current Charge


@<TRIPOS>ATOM
      1 C1          -3.3010    -1.2180    -1.0110 ca         1 8PZ       0.144500
      2 C2          -2.5150    -2.2170    -1.5270 ca         1 8PZ      -0.099600
      3 C3          -3.1440    -3.2420    -2.2650 ca         1 8PZ       0.450900
      4 C4          -1.1560    -0.9030    -0.5000 cc         1 8PZ       0.412700
      5 N1          -4.4730    -3.2470    -2.4530 nb         1 8PZ      -0.303000
      6 N2          -4.6370    -1.1910    -1.1820 nb         1 8PZ      -0.217000
      7 C5           4.6630    -1.8910     1.5670 ca         1 8PZ      -0.100500
      8 C6           5.4780    -2.9360     2.0350 ca         1 8PZ      -0.107000
      9 C7           5.0900    -4.2730     1.8460 ca         1 8PZ      -0.100000
     10 C8           3.8830    -4.5640     1.1900 ca         1 8PZ      -0.107000
     11 C9           3.0660    -3.5200     0.7210 ca         1 8PZ      -0.100500
     12 C10          3.4490    -2.1740     0.9010 ca         1 8PZ      -0.133300
     13 C11          2.5470    -1.0560     0.3840 c3         1 8PZ       0.211800
     14 N3           1.9350    -0.3660     1.5270 n8         1 8PZ      -1.023200
     15 C12          3.2920    -0.0520    -0.5140 c3         1 8PZ      -0.158400
     16 C13          2.3250     0.8870    -1.2320 c          1 8PZ       0.638100
     17 O1           1.6070     0.5060    -2.1420 o          1 8PZ      -0.515100
     18 N4           2.3680     2.1750    -0.8100 ns         1 8PZ      -0.626300
     19 S1           1.5640     3.4830    -1.4380 s6         1 8PZ       1.439500
     20 O2           1.9950     4.6610    -0.6800 o          1 8PZ      -0.536000
     21 O3           1.6610     3.4490    -2.9010 o          1 8PZ      -0.536000
     22 C14         -0.2500     2.9620     0.4070 c3         1 8PZ       0.172600
     23 C15         -1.7930     2.9270     0.6230 c5         1 8PZ       0.172300
     24 O5          -2.4260     1.9830    -0.2870 os         1 8PZ      -0.417000
     25 C16         -2.2200     2.4610     2.0540 c5         1 8PZ       0.108300
     26 O6          -3.5470     2.8660     2.4130 oh         1 8PZ      -0.699000
     27 C17         -2.1630     0.9200     1.8670 c5         1 8PZ       0.078300
     28 O7          -2.8990     0.2460     2.9080 oh         1 8PZ      -0.691000
     29 C18         -2.8000     0.7900     0.4380 c5         1 8PZ       0.315300
     30 N5          -2.4440    -0.3840    -0.3530 na         1 8PZ      -0.289300
     31 N6          -1.1620    -2.0440    -1.2160 nd         1 8PZ      -0.559100
     32 C19         -5.1570    -2.2150    -1.9010 ca         1 8PZ       0.182900
     33 N7          -2.4570    -4.2780    -2.8150 nv         1 8PZ      -1.066900
     34 H1          -0.2870    -0.4170    -0.0760 h5         1 8PZ       0.078800
     35 H2           4.9780    -0.8630     1.7270 ha         1 8PZ       0.112500
     36 H3           6.4120    -2.7090     2.5460 ha         1 8PZ       0.117500
     37 H4           5.7220    -5.0810     2.2100 ha         1 8PZ       0.118000
     38 H5           3.5800    -5.5980     1.0450 ha         1 8PZ       0.117500
     39 H6           2.1340    -3.7610     0.2150 ha         1 8PZ       0.112500
     40 H7           1.7470    -1.5160    -0.2190 h1         1 8PZ       0.099700
     41 H8           1.4800    -1.0730     2.1150 hn         1 8PZ       0.401000
     42 H9           2.6880    -0.0240     2.1340 hn         1 8PZ       0.401000
     43 H11          4.0040     0.5230     0.0880 hc         1 8PZ       0.072200
     44 H12          3.8350    -0.6220    -1.2760 hc         1 8PZ       0.072200
     45 H13          2.9750     2.4400    -0.0550 hn         1 8PZ       0.341500
     46 H14          0.2040     2.0440     0.8020 h1         1 8PZ       0.058700
     47 H15          0.1500     3.8100     0.9800 h1         1 8PZ       0.058700
     48 H16         -2.1770     3.9330     0.4090 h1         1 8PZ       0.110700
     49 H17         -1.5030     2.7970     2.8160 h1         1 8PZ       0.050700
     50 H18         -3.8820     2.1120     2.9600 ho         1 8PZ       0.526000
     51 H19         -1.1180     0.5790     1.8630 h1         1 8PZ       0.053700
     52 H20         -2.6780    -0.7160     2.8610 ho         1 8PZ       0.513000
     53 H21         -3.8940     0.7740     0.5390 h2         1 8PZ       0.124700
     54 H22         -6.2350    -2.2090    -2.0490 h5         1 8PZ       0.046100
     55 H23         -2.9760    -5.1150    -3.0650 hn         1 8PZ       0.505500
     56 H24         -1.4970    -4.4100    -2.5050 hn         1 8PZ       0.505500
     57 O4           0.0260     3.1010    -1.0020 os         1 8PZ      -0.540700
@<TRIPOS>BOND
     1     1     2 ar  
     2     1     6 ar  
     3     1    30 1   
     4     2     3 ar  
     5     2    31 1   
     6     3     5 ar  
     7     3    33 1   
     8     4    30 1   
     9     4    31 2   
    10     4    34 1   
    11     5    32 ar  
    12     6    32 ar  
    13     7     8 ar  
    14     7    12 ar  
    15     7    35 1   
    16     8     9 ar  
    17     8    36 1   
    18     9    10 ar  
    19     9    37 1   
    20    10    11 ar  
    21    10    38 1   
    22    11    12 ar  
    23    11    39 1   
    24    12    13 1   
    25    13    14 1   
    26    13    15 1   
    27    13    40 1   
    28    14    41 1   
    29    14    42 1   
    30    15    16 1   
    31    15    43 1   
    32    15    44 1   
    33    16    17 2   
    34    16    18 1   
    35    18    19 1   
    36    18    45 1   
    37    19    20 2   
    38    19    21 2   
    39    19    57 1   
    40    22    23 1   
    41    22    46 1   
    42    22    47 1   
    43    22    57 1   
    44    23    24 1   
    45    23    25 1   
    46    23    48 1   
    47    24    29 1   
    48    25    26 1   
    49    25    27 1   
    50    25    49 1   
    51    26    50 1   
    52    27    28 1   
    53    27    29 1   
    54    27    51 1   
    55    28    52 1   
    56    29    30 1   
    57    29    53 1   
    58    32    54 1   
    59    33    55 1   
    60    33    56 1   
@<TRIPOS>SUBSTRUCTURE
     1 8PZ         1 TEMP              0 ****  ****    0 ROOT
