@<TRIPOS>MOLECULE
8PZ
   57    60     1     0     0
SMALL
bcc


@<TRIPOS>ATOM
      1 C1          -3.3110    -1.3130    -0.8880 ca         1 8PZ       0.472800
      2 C2          -2.5190    -2.2900    -1.4720 ca         1 8PZ      -0.230200
      3 C3          -3.1970    -3.3140    -2.1570 ca         1 8PZ       0.779200
      4 C4          -1.1790    -0.9410    -0.5520 cc         1 8PZ       0.412700
      5 N1          -4.5340    -3.2640    -2.1940 nb         1 8PZ      -0.829000
      6 N2          -4.6390    -1.2500    -0.9160 nb         1 8PZ      -0.743000
      7 C5           4.2210    -1.8540     1.8890 ca         1 8PZ      -0.118500
      8 C6           5.0580    -2.8210     2.4250 ca         1 8PZ      -0.125000
      9 C7           5.0500    -4.1140     1.9130 ca         1 8PZ      -0.118000
     10 C8           4.2010    -4.4300     0.8630 ca         1 8PZ      -0.125000
     11 C9           3.3640    -3.4580     0.3290 ca         1 8PZ      -0.118500
     12 C10          3.3650    -2.1620     0.8340 ca         1 8PZ      -0.133300
     13 C11          2.4560    -1.1110     0.2290 c3         1 8PZ       0.211800
     14 N3           1.6490    -0.3570     1.1790 n8         1 8PZ      -0.912800
     15 C12          3.2780    -0.1240    -0.6090 c3         1 8PZ      -0.158400
     16 C13          2.3660     0.8810    -1.2650 c          1 8PZ       0.705100
     17 O1           1.5280     0.5960    -2.0850 o          1 8PZ      -0.515100
     18 N4           2.5470     2.1780    -0.8260 ns         1 8PZ      -0.693300
     19 S1           1.6340     3.4730    -1.3310 s6         1 8PZ       1.581100
     20 O2           2.1050     4.5820    -0.5400 o          1 8PZ      -0.606800
     21 O3           1.5920     3.5500    -2.7640 o          1 8PZ      -0.606800
     22 C14         -0.1280     2.8110     0.4780 c3         1 8PZ       0.149400
     23 C15         -1.6370     2.7950     0.6100 c5         1 8PZ       0.149100
     24 O5          -2.2090     1.8530    -0.2920 os         1 8PZ      -0.370600
     25 C16         -2.0650     2.3590     2.0070 c5         1 8PZ       0.085100
     26 O6          -3.3160     2.9260     2.2850 oh         1 8PZ      -0.576800
     27 C17         -2.1800     0.8430     1.8190 c5         1 8PZ       0.055100
     28 O7          -3.0370     0.2050     2.7140 oh         1 8PZ      -0.568800
     29 C18         -2.7540     0.7620     0.4040 c5         1 8PZ       0.262800
     30 N5          -2.4330    -0.4550    -0.2890 na         1 8PZ      -0.260000
     31 N6          -1.1890    -2.0360    -1.2500 nd         1 8PZ      -0.559100
     32 C19         -5.1620    -2.2600    -1.5890 ca         1 8PZ       0.708900
     33 N7          -2.5640    -4.3150    -2.7680 nv         1 8PZ      -0.956500
     34 H1          -0.2920    -0.4430    -0.1870 h5         1 8PZ       0.078800
     35 H2           4.2420    -0.8510     2.3010 ha         1 8PZ       0.130500
     36 H3           5.7160    -2.5680     3.2460 ha         1 8PZ       0.135500
     37 H4           5.7030    -4.8680     2.3330 ha         1 8PZ       0.136000
     38 H5           4.1850    -5.4340     0.4600 ha         1 8PZ       0.135500
     39 H6           2.7020    -3.7110    -0.4920 ha         1 8PZ       0.130500
     40 H7           1.7660    -1.6250    -0.4460 h1         1 8PZ       0.099700
     41 H8           1.1380    -0.9930     1.7800 hn         1 8PZ       0.345800
     42 H9           2.2330     0.2000     1.7920 hn         1 8PZ       0.345800
     43 H11          4.0290     0.3640     0.0170 hc         1 8PZ       0.072200
     44 H12          3.8130    -0.6630    -1.3920 hc         1 8PZ       0.072200
     45 H13          3.2570     2.3870    -0.1350 hn         1 8PZ       0.341500
     46 H14          0.3280     1.8580     0.7620 h1         1 8PZ       0.058700
     47 H15          0.2790     3.6030     1.1100 h1         1 8PZ       0.058700
     48 H16         -2.0260     3.7890     0.3740 h1         1 8PZ       0.110700
     49 H17         -1.3190     2.6200     2.7690 h1         1 8PZ       0.050700
     50 H18         -3.7490     2.3790     2.9520 ho         1 8PZ       0.427000
     51 H19         -1.1730     0.4060     1.8430 h1         1 8PZ       0.053700
     52 H20         -2.5480    -0.0120     3.5140 ho         1 8PZ       0.414000
     53 H21         -3.8470     0.8170     0.4360 h2         1 8PZ       0.124700
     54 H22         -6.2450    -2.2790    -1.6580 h5         1 8PZ       0.046100
     55 H23         -3.0860    -5.0480    -3.2160 hn         1 8PZ       0.450300
     56 H24         -1.5640    -4.4020    -2.7240 hn         1 8PZ       0.450300
     57 O4           0.1630     3.0710    -0.9110 os         1 8PZ      -0.517500
@<TRIPOS>BOND
     1     1     2 ar  
     2     1     6 ar  
     3     1    30 1   
     4     2     3 ar  
     5     2    31 1   
     6     3     5 ar  
     7     3    33 1   
     8     4    30 1   
     9     4    31 2   
    10     4    34 1   
    11     5    32 ar  
    12     6    32 ar  
    13     7     8 ar  
    14     7    12 ar  
    15     7    35 1   
    16     8     9 ar  
    17     8    36 1   
    18     9    10 ar  
    19     9    37 1   
    20    10    11 ar  
    21    10    38 1   
    22    11    12 ar  
    23    11    39 1   
    24    12    13 1   
    25    13    14 1   
    26    13    15 1   
    27    13    40 1   
    28    14    41 1   
    29    14    42 1   
    30    15    16 1   
    31    15    43 1   
    32    15    44 1   
    33    16    17 2   
    34    16    18 1   
    35    18    19 1   
    36    18    45 1   
    37    19    20 2   
    38    19    21 2   
    39    19    57 1   
    40    22    23 1   
    41    22    46 1   
    42    22    47 1   
    43    22    57 1   
    44    23    24 1   
    45    23    25 1   
    46    23    48 1   
    47    24    29 1   
    48    25    26 1   
    49    25    27 1   
    50    25    49 1   
    51    26    50 1   
    52    27    28 1   
    53    27    29 1   
    54    27    51 1   
    55    28    52 1   
    56    29    30 1   
    57    29    53 1   
    58    32    54 1   
    59    33    55 1   
    60    33    56 1   
@<TRIPOS>SUBSTRUCTURE
     1 8PZ         1 TEMP              0 ****  ****    0 ROOT
