@<TRIPOS>MOLECULE
8Q2
   63    66     1     0     0
SMALL
bcc


@<TRIPOS>ATOM
      1 C1          -2.8560     2.3300     0.7330 ca         1 8Q2       0.445800
      2 C2          -1.5840     2.6740     1.1630 ca         1 8Q2      -0.230200
      3 C3          -1.2970     4.0490     1.2300 ca         1 8Q2       0.778200
      4 C4          -1.6510     0.5650     1.1970 cc         1 8Q2       0.426700
      5 N1          -2.2640     4.9090     0.8940 nb         1 8Q2      -0.827000
      6 N2          -3.8310     3.1750     0.3990 nb         1 8Q2      -0.752000
      7 C5           9.4320     3.8640    -1.0180 c1         1 8Q2      -0.107500
      8 C6           8.4200     3.2360    -1.1660 c1         1 8Q2      -0.161100
      9 C7           7.1970     2.4750    -1.3810 c3         1 8Q2       0.228500
     10 C8           5.4280     1.5710    -0.0870 ca         1 8Q2       0.147100
     11 C9           4.8680     1.3770     1.1770 ca         1 8Q2      -0.185000
     12 C10          3.6760     0.6910     1.3050 ca         1 8Q2      -0.086500
     13 C11          4.7760     1.0680    -1.2060 ca         1 8Q2      -0.185000
     14 C12          3.5770     0.3780    -1.0530 ca         1 8Q2      -0.086500
     15 C13          3.0080     0.1750     0.1950 ca         1 8Q2      -0.159300
     16 C14          1.7220    -0.6050     0.3880 c3         1 8Q2       0.222800
     17 N3           0.7840    -0.5920    -0.7170 n8         1 8Q2      -0.917800
     18 C15          2.0520    -2.0650     0.7320 c3         1 8Q2      -0.158400
     19 C16          0.7770    -2.8180     1.0080 c          1 8Q2       0.712100
     20 O2           0.0790    -2.6290     1.9760 o          1 8Q2      -0.535100
     21 N4           0.4350    -3.7360     0.0350 ns         1 8Q2      -0.687300
     22 S1          -0.9750    -4.6190     0.0360 s6         1 8Q2       1.583100
     23 O3          -0.9910    -5.2840    -1.2420 o          1 8Q2      -0.607800
     24 O4          -1.1170    -5.3580     1.2590 o          1 8Q2      -0.607800
     25 O5          -2.1080    -3.5170     0.1080 os         1 8Q2      -0.525500
     26 C18         -3.5090    -1.8050    -0.7660 c5         1 8Q2       0.144100
     27 O6          -3.6400    -1.2240     0.5270 os         1 8Q2      -0.368600
     28 C19         -3.6420    -0.6470    -1.7560 c5         1 8Q2       0.065100
     29 O7          -4.1960    -1.1000    -2.9560 oh         1 8Q2      -0.582800
     30 C20         -4.5390     0.3240    -0.9790 c5         1 8Q2       0.082100
     31 O8          -5.8740    -0.0990    -1.0020 oh         1 8Q2      -0.577800
     32 C21         -4.0320     0.1130     0.4440 c5         1 8Q2       0.268800
     33 N5          -2.8790     0.9630     0.7400 na         1 8Q2      -0.290000
     34 N6          -0.8480     1.5560     1.4500 nd         1 8Q2      -0.575100
     35 C22         -3.4470     4.4340     0.5100 ca         1 8Q2       0.706900
     36 N7          -0.1060     4.5140     1.6110 nv         1 8Q2      -0.956500
     37 H1          -1.4020    -0.4740     1.3350 h5         1 8Q2       0.094800
     38 H2          10.3290     4.4220    -0.8760 ha         1 8Q2       0.172500
     39 H3           6.5340     3.0340    -2.0500 h1         1 8Q2       0.051200
     40 H4           7.4380     1.5270    -1.8750 h1         1 8Q2       0.051200
     41 H6           3.2560     0.5530     2.2950 ha         1 8Q2       0.130500
     42 H7           5.1710     1.1990    -2.2040 ha         1 8Q2       0.144000
     43 H8           3.0910     0.0050    -1.9460 ha         1 8Q2       0.130500
     44 H9           1.2040    -0.1680     1.2460 h1         1 8Q2       0.101700
     45 H10          0.5130     0.3570    -0.9390 hn         1 8Q2       0.350300
     46 H11          1.1890    -0.9880    -1.5570 hn         1 8Q2       0.350300
     47 H13          2.6210    -2.5200    -0.0820 hc         1 8Q2       0.071700
     48 H14          2.6760    -2.1060     1.6250 hc         1 8Q2       0.071700
     49 H15          1.0190    -3.8450    -0.7850 hn         1 8Q2       0.342500
     50 H18         -4.3230    -2.5240    -0.9150 h1         1 8Q2       0.101700
     51 H19         -2.6620    -0.1770    -1.9180 h1         1 8Q2       0.054700
     52 H20         -3.9940    -0.4650    -3.6510 ho         1 8Q2       0.420000
     53 H21         -4.4290     1.3590    -1.3180 h1         1 8Q2       0.089700
     54 H22         -6.0840    -0.3750    -1.9020 ho         1 8Q2       0.426000
     55 H23         -4.8040     0.3180     1.1890 h2         1 8Q2       0.124700
     56 H24         -4.1890     5.1840     0.2570 h5         1 8Q2       0.047100
     57 H25          0.6300     3.8870     1.8840 hn         1 8Q2       0.452300
     58 H26          0.0650     5.5030     1.6580 hn         1 8Q2       0.452300
     59 C17         -2.1820    -2.5030    -0.9170 c3         1 8Q2       0.158400
     60 H5           5.3700     1.7720     2.0510 ha         1 8Q2       0.144000
     61 O1           6.5930     2.2580    -0.1210 os         1 8Q2      -0.310900
     62 H16         -1.3430    -1.8100    -0.8030 h1         1 8Q2       0.069200
     63 H17         -2.1380    -2.9560    -1.9100 h1         1 8Q2       0.069200
@<TRIPOS>BOND
     1     1     2 ar  
     2     1     6 ar  
     3     1    33 1   
     4     2     3 ar  
     5     2    34 1   
     6     3     5 ar  
     7     3    36 1   
     8     4    33 1   
     9     4    34 2   
    10     4    37 1   
    11     5    35 ar  
    12     6    35 ar  
    13     7     8 3   
    14     7    38 1   
    15     8     9 1   
    16     9    39 1   
    17     9    40 1   
    18     9    61 1   
    19    10    11 ar  
    20    10    13 ar  
    21    10    61 1   
    22    11    12 ar  
    23    11    60 1   
    24    12    15 ar  
    25    12    41 1   
    26    13    14 ar  
    27    13    42 1   
    28    14    15 ar  
    29    14    43 1   
    30    15    16 1   
    31    16    17 1   
    32    16    18 1   
    33    16    44 1   
    34    17    45 1   
    35    17    46 1   
    36    18    19 1   
    37    18    47 1   
    38    18    48 1   
    39    19    20 2   
    40    19    21 1   
    41    21    22 1   
    42    21    49 1   
    43    22    23 2   
    44    22    24 2   
    45    22    25 1   
    46    25    59 1   
    47    26    27 1   
    48    26    28 1   
    49    26    50 1   
    50    26    59 1   
    51    27    32 1   
    52    28    29 1   
    53    28    30 1   
    54    28    51 1   
    55    29    52 1   
    56    30    31 1   
    57    30    32 1   
    58    30    53 1   
    59    31    54 1   
    60    32    33 1   
    61    32    55 1   
    62    35    56 1   
    63    36    57 1   
    64    36    58 1   
    65    59    62 1   
    66    59    63 1   
@<TRIPOS>SUBSTRUCTURE
     1 8Q2         1 TEMP              0 ****  ****    0 ROOT
