@<TRIPOS>MOLECULE
8Q2
   63    66     1     0     0
SMALL
No Charge or Current Charge


@<TRIPOS>ATOM
      1 C1          -1.2700     1.8940     0.5540 ca         1 8Q2       0.117500
      2 C2          -0.5350     2.7920     1.2880 ca         1 8Q2      -0.099600
      3 C3           0.3020     3.6920     0.5960 ca         1 8Q2       0.449900
      4 C4          -1.6360     1.6470     2.7420 cc         1 8Q2       0.426700
      5 N1           0.3900     3.6710    -0.7420 nb         1 8Q2      -0.301000
      6 N2          -1.2080     1.8500    -0.7910 nb         1 8Q2      -0.226000
      7 C5           7.9000     5.1440     0.4980 c1         1 8Q2      -0.195000
      8 C6           7.2170     4.2340     0.0830 c1         1 8Q2      -0.161100
      9 C7           6.4090     3.1270    -0.4470 c3         1 8Q2       0.251700
     10 C8           4.3550     1.9280     0.2040 ca         1 8Q2       0.147100
     11 C9           3.3070     1.7930     1.1270 ca         1 8Q2      -0.167000
     12 C10          2.3120     0.8200     0.9400 ca         1 8Q2      -0.068500
     13 C11          4.4090     1.0680    -0.9140 ca         1 8Q2      -0.167000
     14 C12          3.4160     0.0900    -1.0990 ca         1 8Q2      -0.068500
     15 C13          2.3560    -0.0380    -0.1760 ca         1 8Q2      -0.159300
     16 C14          1.2710    -1.0890    -0.3650 c3         1 8Q2       0.222800
     17 N3           0.5330    -0.7950    -1.5980 n8         1 8Q2      -1.028200
     18 C15          1.8280    -2.5210    -0.4190 c3         1 8Q2      -0.158400
     19 C16          0.7250    -3.5130    -0.0710 c          1 8Q2       0.645100
     20 O2           0.4490    -3.7920     1.0850 o          1 8Q2      -0.535100
     21 N4           0.1000    -4.0620    -1.1390 ns         1 8Q2      -0.620300
     22 S1          -1.3220    -4.9130    -1.1260 s6         1 8Q2       1.441500
     23 O3          -1.7480    -5.0770    -2.5190 o          1 8Q2      -0.537000
     24 O4          -1.1780    -6.0670    -0.2330 o          1 8Q2      -0.537000
     25 O5          -2.2760    -3.7920    -0.3960 os         1 8Q2      -0.548700
     26 C18         -3.3400    -1.6160    -0.2550 c5         1 8Q2       0.167300
     27 O6          -2.3810    -1.0170     0.6430 os         1 8Q2      -0.415000
     28 C19         -3.9240    -0.3660    -0.9730 c5         1 8Q2       0.088300
     29 O7          -5.1480    -0.6220    -1.6910 oh         1 8Q2      -0.705000
     30 C20         -4.1840     0.5530     0.2570 c5         1 8Q2       0.105300
     31 O8          -5.4800     0.2310     0.7840 oh         1 8Q2      -0.700000
     32 C21         -3.0040     0.1510     1.2250 c5         1 8Q2       0.321300
     33 N5          -1.9860     1.1740     1.4730 na         1 8Q2      -0.319300
     34 N6          -0.7450     2.6540     2.6640 nd         1 8Q2      -0.575100
     35 C22         -0.3720     2.7440    -1.3720 ca         1 8Q2       0.180900
     36 N7           1.0520     4.6310     1.2330 nv         1 8Q2      -1.066900
     37 H1          -2.0650     1.2420     3.6520 h5         1 8Q2       0.094800
     38 H2           8.4980     5.9490     0.8770 ha         1 8Q2       0.260000
     39 H3           6.0580     3.3910    -1.4530 h1         1 8Q2       0.051200
     40 H4           7.0370     2.2290    -0.5180 h1         1 8Q2       0.051200
     41 H6           1.5070     0.7330     1.6670 ha         1 8Q2       0.112500
     42 H7           5.2080     1.1410    -1.6460 ha         1 8Q2       0.126000
     43 H8           3.4720    -0.5670    -1.9650 ha         1 8Q2       0.112500
     44 H9           0.5700    -1.0250     0.4850 h1         1 8Q2       0.101700
     45 H10          0.0510     0.1010    -1.4660 hn         1 8Q2       0.405500
     46 H11          1.2120    -0.5900    -2.3360 hn         1 8Q2       0.405500
     47 H13          2.2200    -2.7130    -1.4240 hc         1 8Q2       0.071700
     48 H14          2.6250    -2.6130     0.3270 hc         1 8Q2       0.071700
     49 H15          0.3120    -3.7190    -2.0590 hn         1 8Q2       0.342500
     50 H18         -4.1120    -2.1320     0.3330 h1         1 8Q2       0.101700
     51 H19         -3.1690     0.0810    -1.6360 h1         1 8Q2       0.054700
     52 H20         -4.9650    -0.4960    -2.6550 ho         1 8Q2       0.519000
     53 H21         -4.1300     1.6150    -0.0220 h1         1 8Q2       0.089700
     54 H22         -5.9360    -0.1650    -0.0050 ho         1 8Q2       0.525000
     55 H23         -3.4250    -0.1110     2.2040 h2         1 8Q2       0.124700
     56 H24         -0.3100     2.7180    -2.4590 h5         1 8Q2       0.047100
     57 H25          1.1480     4.5210     2.2390 hn         1 8Q2       0.507500
     58 H26          1.8510     5.0170     0.7400 hn         1 8Q2       0.507500
     59 C17         -2.6590    -2.6490    -1.1860 c3         1 8Q2       0.181600
     60 H5           3.2640     2.4500     1.9910 ha         1 8Q2       0.126000
     61 O1           5.2990     2.9060     0.4390 os         1 8Q2      -0.334100
     62 H16         -1.7940    -2.1710    -1.6620 h1         1 8Q2       0.069200
     63 H17         -3.3670    -2.9400    -1.9740 h1         1 8Q2       0.069200
@<TRIPOS>BOND
     1     1     2 ar  
     2     1     6 ar  
     3     1    33 1   
     4     2     3 ar  
     5     2    34 1   
     6     3     5 ar  
     7     3    36 1   
     8     4    33 1   
     9     4    34 2   
    10     4    37 1   
    11     5    35 ar  
    12     6    35 ar  
    13     7     8 3   
    14     7    38 1   
    15     8     9 1   
    16     9    39 1   
    17     9    40 1   
    18     9    61 1   
    19    10    11 ar  
    20    10    13 ar  
    21    10    61 1   
    22    11    12 ar  
    23    11    60 1   
    24    12    15 ar  
    25    12    41 1   
    26    13    14 ar  
    27    13    42 1   
    28    14    15 ar  
    29    14    43 1   
    30    15    16 1   
    31    16    17 1   
    32    16    18 1   
    33    16    44 1   
    34    17    45 1   
    35    17    46 1   
    36    18    19 1   
    37    18    47 1   
    38    18    48 1   
    39    19    20 2   
    40    19    21 1   
    41    21    22 1   
    42    21    49 1   
    43    22    23 2   
    44    22    24 2   
    45    22    25 1   
    46    25    59 1   
    47    26    27 1   
    48    26    28 1   
    49    26    50 1   
    50    26    59 1   
    51    27    32 1   
    52    28    29 1   
    53    28    30 1   
    54    28    51 1   
    55    29    52 1   
    56    30    31 1   
    57    30    32 1   
    58    30    53 1   
    59    31    54 1   
    60    32    33 1   
    61    32    55 1   
    62    35    56 1   
    63    36    57 1   
    64    36    58 1   
    65    59    62 1   
    66    59    63 1   
@<TRIPOS>SUBSTRUCTURE
     1 8Q2         1 TEMP              0 ****  ****    0 ROOT
