@<TRIPOS>MOLECULE
8Q3
   39    41     1     0     0
SMALL
abcg2


@<TRIPOS>ATOM
      1 CAX          4.3940     1.2220     1.2550 c3         1 8Q3      -0.057800
      2 CAB          3.5430     0.1790     0.5970 ca         1 8Q3       0.018700
      3 CAC          3.8770    -1.1600     0.7210 ca         1 8Q3      -0.123000
      4 CAD          3.0620    -2.0840     0.0830 ca         1 8Q3       0.096100
      5 OAG          3.1920    -3.4160     0.0750 os         1 8Q3      -0.111100
      6 NAH          2.1700    -3.9530    -0.6800 nc         1 8Q3      -0.288700
      7 CAI          1.4410    -2.9820    -1.1270 cd         1 8Q3       0.391900
      8 CAW          0.2510    -3.2150    -1.9800 c3         1 8Q3      -0.116400
      9 CAE          1.9590    -1.7270    -0.6710 ca         1 8Q3      -0.256900
     10 CAF          1.6150    -0.3860    -0.8010 ca         1 8Q3      -0.048000
     11 CAA          2.4030     0.5500    -0.1580 ca         1 8Q3       0.202000
     12 NAJ          2.0880     1.9350    -0.2710 nu         1 8Q3      -0.890100
     13 SAK          0.9530     2.5680     0.7490 sy         1 8Q3       1.171600
     14 OAL          1.2740     2.0960     2.0830 o          1 8Q3      -0.528000
     15 OAM          0.8930     3.9900     0.4800 o          1 8Q3      -0.528000
     16 CAN         -0.5980     1.8230     0.3010 ca         1 8Q3      -0.339500
     17 CAS         -1.2410     1.0160     1.2230 ca         1 8Q3       0.056000
     18 CAR         -2.4420     0.4180     0.8760 ca         1 8Q3      -0.083900
     19 BRAV        -3.3290    -0.6800     2.1210 br         1 8Q3      -0.076100
     20 CAQ         -2.9880     0.6210    -0.3810 ca         1 8Q3       0.004000
     21 CAP         -2.3350     1.4220    -1.3060 ca         1 8Q3      -0.220000
     22 CAO         -1.1300     2.0350    -0.9780 ca         1 8Q3       0.230100
     23 OAT         -0.4120     2.7910    -1.8110 os         1 8Q3      -0.354100
     24 CAU         -0.8990     3.0290    -3.1230 c3         1 8Q3       0.152900
     25 H1           4.5990     2.0540     0.5830 hc         1 8Q3       0.059033
     26 H2           3.8980     1.6340     2.1330 hc         1 8Q3       0.059033
     27 H3           5.3430     0.7980     1.5770 hc         1 8Q3       0.059033
     28 H4           4.7480    -1.4660     1.2850 ha         1 8Q3       0.143000
     29 H5          -0.6310    -2.7460    -1.5430 hc         1 8Q3       0.058700
     30 H6           0.3990    -2.7770    -2.9680 hc         1 8Q3       0.058700
     31 H7           0.0520    -4.2770    -2.1000 hc         1 8Q3       0.058700
     32 H8           0.7610    -0.0820    -1.3920 ha         1 8Q3       0.123000
     33 H9           2.0230     2.3050    -1.2140 hn         1 8Q3       0.499000
     34 H10         -0.8030     0.8550     2.1980 ha         1 8Q3       0.163000
     35 H11         -3.9230     0.1570    -0.6620 ha         1 8Q3       0.132000
     36 H12         -2.7800     1.5540    -2.2820 ha         1 8Q3       0.125000
     37 H13         -0.9820     2.1020    -3.6950 h1         1 8Q3       0.052367
     38 H14         -1.8680     3.5320    -3.1050 h1         1 8Q3       0.052367
     39 H15         -0.1720     3.6770    -3.6020 h1         1 8Q3       0.052367
@<TRIPOS>BOND
     1     1     2 1   
     2     1    25 1   
     3     1    26 1   
     4     1    27 1   
     5     2     3 ar  
     6     2    11 ar  
     7     3     4 ar  
     8     3    28 1   
     9     4     5 1   
    10     4     9 ar  
    11     5     6 1   
    12     6     7 2   
    13     7     8 1   
    14     7     9 1   
    15     8    29 1   
    16     8    30 1   
    17     8    31 1   
    18     9    10 ar  
    19    10    11 ar  
    20    10    32 1   
    21    11    12 1   
    22    12    13 1   
    23    12    33 1   
    24    13    14 2   
    25    13    15 2   
    26    13    16 1   
    27    16    17 ar  
    28    16    22 ar  
    29    17    18 ar  
    30    17    34 1   
    31    18    19 1   
    32    18    20 ar  
    33    20    21 ar  
    34    20    35 1   
    35    21    22 ar  
    36    21    36 1   
    37    22    23 1   
    38    23    24 1   
    39    24    37 1   
    40    24    38 1   
    41    24    39 1   
@<TRIPOS>SUBSTRUCTURE
     1 8Q3         1 TEMP              0 ****  ****    0 ROOT
