@<TRIPOS>MOLECULE
8Q3
   39    41     1     0     0
SMALL
No Charge or Current Charge


@<TRIPOS>ATOM
      1 CAX          4.2850     1.1020     1.5820 c3         1 8Q3      -0.057800
      2 CAB          3.4450     0.1570     0.7250 ca         1 8Q3       0.018700
      3 CAC          3.7030    -1.2330     0.8110 ca         1 8Q3      -0.123000
      4 CAD          2.9540    -2.0990     0.0100 ca         1 8Q3       0.096100
      5 OAG          3.0540    -3.4630    -0.0460 os         1 8Q3      -0.111100
      6 NAH          2.0580    -3.9110    -1.0330 nc         1 8Q3      -0.288700
      7 CAI          1.4590    -2.8020    -1.4780 cd         1 8Q3       0.391900
      8 CAW          0.3630    -2.8520    -2.5040 c3         1 8Q3      -0.116400
      9 CAE          2.0050    -1.6400    -0.8400 ca         1 8Q3      -0.256900
     10 CAF          1.7130    -0.2760    -0.9670 ca         1 8Q3      -0.048000
     11 CAA          2.4300     0.6400    -0.1620 ca         1 8Q3       0.202000
     12 NAJ          2.1210     1.9990    -0.2640 nu         1 8Q3      -0.890100
     13 SAK          1.0060     2.7960     0.7050 sy         1 8Q3       1.171600
     14 OAL          1.4590     2.5660     2.0790 o          1 8Q3      -0.528000
     15 OAM          0.9610     4.1340     0.1130 o          1 8Q3      -0.528000
     16 CAN         -0.5360     1.9430     0.4100 ca         1 8Q3      -0.339500
     17 CAS         -1.1800     1.2950     1.4840 ca         1 8Q3       0.056000
     18 CAR         -2.3840     0.6070     1.2660 ca         1 8Q3      -0.083900
     19 BrAV        -3.2580    -0.2720     2.7230 br         1 8Q3      -0.076100
     20 CAQ         -2.9480     0.5590    -0.0180 ca         1 8Q3       0.004000
     21 CAP         -2.3020     1.1960    -1.0900 ca         1 8Q3      -0.220000
     22 CAO         -1.0900     1.8920    -0.8820 ca         1 8Q3       0.230100
     23 OAT         -0.4120     2.4910    -1.9250 os         1 8Q3      -0.354100
     24 CAU         -0.9090     2.4890    -3.2760 c3         1 8Q3       0.152900
     25 H1           4.4260     2.0760     1.0990 hc         1 8Q3       0.059033
     26 H2           3.8130     1.2710     2.5560 hc         1 8Q3       0.059033
     27 H3           5.2840     0.6890     1.7660 hc         1 8Q3       0.059033
     28 H4           4.4650    -1.6250     1.4790 ha         1 8Q3       0.143000
     29 H5          -0.5120    -2.2880    -2.1620 hc         1 8Q3       0.058700
     30 H6           0.6990    -2.4150    -3.4500 hc         1 8Q3       0.058700
     31 H7           0.0430    -3.8820    -2.7010 hc         1 8Q3       0.058700
     32 H8           0.9440     0.0620    -1.6570 ha         1 8Q3       0.123000
     33 H9           1.7530     2.2610    -1.1710 hn         1 8Q3       0.499000
     34 H10         -0.7580     1.3180     2.4880 ha         1 8Q3       0.163000
     35 H11         -3.8800     0.0230    -0.1840 ha         1 8Q3       0.132000
     36 H12         -2.7560     1.1330    -2.0740 ha         1 8Q3       0.125000
     37 H13         -1.0090     1.4640    -3.6540 h1         1 8Q3       0.052367
     38 H14         -1.8870     2.9830    -3.3330 h1         1 8Q3       0.052367
     39 H15         -0.2180     3.0280    -3.9360 h1         1 8Q3       0.052367
@<TRIPOS>BOND
     1     1     2 1   
     2     1    25 1   
     3     1    26 1   
     4     1    27 1   
     5     2     3 ar  
     6     2    11 ar  
     7     3     4 ar  
     8     3    28 1   
     9     4     5 1   
    10     4     9 ar  
    11     5     6 1   
    12     6     7 2   
    13     7     8 1   
    14     7     9 1   
    15     8    29 1   
    16     8    30 1   
    17     8    31 1   
    18     9    10 ar  
    19    10    11 ar  
    20    10    32 1   
    21    11    12 1   
    22    12    13 1   
    23    12    33 1   
    24    13    14 2   
    25    13    15 2   
    26    13    16 1   
    27    16    17 ar  
    28    16    22 ar  
    29    17    18 ar  
    30    17    34 1   
    31    18    19 1   
    32    18    20 ar  
    33    20    21 ar  
    34    20    35 1   
    35    21    22 ar  
    36    21    36 1   
    37    22    23 1   
    38    23    24 1   
    39    24    37 1   
    40    24    38 1   
    41    24    39 1   
@<TRIPOS>SUBSTRUCTURE
     1 8Q3         1 TEMP              0 ****  ****    0 ROOT
