@<TRIPOS>MOLECULE
8Q4
   47    48     1     0     0
SMALL
No Charge or Current Charge


@<TRIPOS>ATOM
      1 C13         -2.3010    -3.1170    -0.6950 c3         1 8Q4      -0.103100
      2 O1           5.1380    -0.3100     0.4020 os         1 8Q4      -0.461200
      3 C2          -4.8980    -1.8050    -1.1190 ca         1 8Q4      -0.098000
      4 C1          -3.9740    -1.1990    -0.2320 ca         1 8Q4      -0.093300
      5 C12         -2.5230    -2.1080     1.6130 c3         1 8Q4      -0.103100
      6 C5          -5.5880     0.6340     0.1180 ca         1 8Q4      -0.055800
      7 C18          2.8090    -0.0280    -0.0660 ca         1 8Q4      -0.159000
      8 C4          -6.4850     0.0080    -0.7660 ca         1 8Q4      -0.103000
      9 O3           5.2660     0.8620     2.2950 o          1 8Q4      -0.676500
     10 O4           0.3490    -1.7540     0.4670 o          1 8Q4      -0.606100
     11 C17          1.7440     0.7270    -0.6070 ca         1 8Q4      -0.009000
     12 C3          -6.1400    -1.2040    -1.3800 ca         1 8Q4      -0.120000
     13 C6          -4.3420     0.0260     0.3740 ca         1 8Q4      -0.092000
     14 C7          -5.9500     1.9280     0.7720 ce         1 8Q4      -0.063400
     15 C8          -6.6370     2.9800    -0.0830 c3         1 8Q4      -0.051900
     16 C9          -5.6250     2.1850     2.0580 c2         1 8Q4      -0.308000
     17 C10         -0.2300    -0.8300    -0.0840 c          1 8Q4       0.654100
     18 C11         -2.5860    -1.8080     0.0910 c3         1 8Q4       0.201700
     19 C19          4.1260     0.4570    -0.1250 ca         1 8Q4       0.255100
     20 C20          4.4010     1.6960    -0.7440 ca         1 8Q4       0.061000
     21 C21          3.3460     2.4480    -1.2840 ca         1 8Q4      -0.076000
     22 C22          2.0270     1.9650    -1.2120 ca         1 8Q4      -0.216000
     23 C24          5.7130    -0.0410     1.6050 c          1 8Q4       0.838100
     24 N3          -1.5930    -0.7950    -0.2890 ns         1 8Q4      -0.533900
     25 N4           0.3870     0.3080    -0.5810 ns         1 8Q4      -0.165000
     26 O25          6.6380    -0.7570     1.9500 o          1 8Q4      -0.676500
     27 Cl           6.0510     2.3160    -0.8720 cl         1 8Q4      -0.208000
     28 H1          -3.0450    -3.8860    -0.4580 hc         1 8Q4       0.048700
     29 H2          -2.3160    -2.9350    -1.7770 hc         1 8Q4       0.048700
     30 H3          -1.3190    -3.5330    -0.4430 hc         1 8Q4       0.048700
     31 H4          -4.6770    -2.7430    -1.6200 ha         1 8Q4       0.117000
     32 H5          -3.3770    -2.7260     1.9140 hc         1 8Q4       0.048700
     33 H6          -1.6130    -2.6540     1.8830 hc         1 8Q4       0.048700
     34 H7          -2.5480    -1.1860     2.2050 hc         1 8Q4       0.048700
     35 H8           2.6410    -0.9880     0.4080 ha         1 8Q4       0.148000
     36 H9          -7.4540     0.4560    -0.9740 ha         1 8Q4       0.108000
     37 H10         -6.8390    -1.6820    -2.0620 ha         1 8Q4       0.108000
     38 H11         -3.6450     0.5230     1.0440 ha         1 8Q4       0.126000
     39 H12         -7.7280     2.8770    -0.0320 hc         1 8Q4       0.039033
     40 H13         -6.3850     3.9950     0.2460 hc         1 8Q4       0.039033
     41 H14         -6.3420     2.8980    -1.1360 hc         1 8Q4       0.039033
     42 H15         -5.1210     1.4500     2.6850 ha         1 8Q4       0.166500
     43 H16         -5.8670     3.1370     2.5300 ha         1 8Q4       0.166500
     44 H17          3.5500     3.4040    -1.7610 ha         1 8Q4       0.103000
     45 H18          1.2200     2.5590    -1.6350 ha         1 8Q4       0.087000
     46 H19         -1.9460     0.0240    -0.7650 hn         1 8Q4       0.300500
     47 H20         -0.2470     0.9700    -1.0070 hn         1 8Q4       0.131000
@<TRIPOS>BOND
     1     1    18 1   
     2     1    28 1   
     3     1    29 1   
     4     1    30 1   
     5     2    19 1   
     6     2    23 1   
     7     3     4 ar  
     8     3    12 ar  
     9     3    31 1   
    10     4    13 ar  
    11     4    18 1   
    12     5    18 1   
    13     5    32 1   
    14     5    33 1   
    15     5    34 1   
    16     6     8 ar  
    17     6    13 ar  
    18     6    14 1   
    19     7    11 ar  
    20     7    19 ar  
    21     7    35 1   
    22     8    12 ar  
    23     8    36 1   
    24     9    23 1   
    25    10    17 2   
    26    11    22 ar  
    27    11    25 1   
    28    12    37 1   
    29    13    38 1   
    30    14    15 1   
    31    14    16 2   
    32    15    39 1   
    33    15    40 1   
    34    15    41 1   
    35    16    42 1   
    36    16    43 1   
    37    17    24 1   
    38    17    25 1   
    39    18    24 1   
    40    19    20 ar  
    41    20    21 ar  
    42    20    27 1   
    43    21    22 ar  
    44    21    44 1   
    45    22    45 1   
    46    23    26 1   
    47    24    46 1   
    48    25    47 1   
@<TRIPOS>SUBSTRUCTURE
     1 8Q4         1 TEMP              0 ****  ****    0 ROOT
