@<TRIPOS>MOLECULE
8Q4
   47    48     1     0     0
SMALL
bcc


@<TRIPOS>ATOM
      1 C13         -2.1280    -2.9400    -0.5350 c3         1 8Q4      -0.103100
      2 O1           5.0370    -0.5830    -0.2200 os         1 8Q4      -0.461200
      3 C2          -4.7900    -1.9170    -0.9110 ca         1 8Q4      -0.116000
      4 C1          -3.8980    -1.1530    -0.1670 ca         1 8Q4      -0.093300
      5 C12         -2.4500    -1.8690     1.7040 c3         1 8Q4      -0.103100
      6 C5          -5.5910     0.5950     0.0260 ca         1 8Q4      -0.055800
      7 C18          2.7360    -0.0480    -0.3390 ca         1 8Q4      -0.177000
      8 C4          -6.4590    -0.1860    -0.7410 ca         1 8Q4      -0.121000
      9 O3           5.1670    -0.1080     1.9850 o          1 8Q4      -0.516500
     10 O4           0.3570    -1.3420     0.6870 o          1 8Q4      -0.606100
     11 C17          1.7170     0.8870    -0.5190 ca         1 8Q4       0.083600
     12 C3          -6.0600    -1.4320    -1.1940 ca         1 8Q4      -0.138000
     13 C6          -4.3160     0.0970     0.2890 ca         1 8Q4      -0.110000
     14 C7          -6.0110     1.9180     0.5450 ce         1 8Q4      -0.063400
     15 C8          -6.9540     2.7260    -0.2990 c3         1 8Q4      -0.051900
     16 C9          -5.5710     2.3740     1.7200 c2         1 8Q4      -0.208000
     17 C10         -0.2500    -0.5260     0.0120 c          1 8Q4       0.788100
     18 C11         -2.4920    -1.6410     0.1860 c3         1 8Q4       0.201700
     19 C19          4.0660     0.3490    -0.3230 ca         1 8Q4       0.255100
     20 C20          4.3840     1.6940    -0.4890 ca         1 8Q4      -0.030600
     21 C21          3.3820     2.6290    -0.6810 ca         1 8Q4      -0.094000
     22 C22          2.0570     2.2310    -0.6880 ca         1 8Q4      -0.234000
     23 C24          5.6460    -0.7650     1.0660 c          1 8Q4       0.518100
     24 N3          -1.5860    -0.5600    -0.2200 ns         1 8Q4      -0.600900
     25 N4           0.3670     0.5510    -0.5890 ns         1 8Q4      -0.491100
     26 O25          6.5590    -1.5840     1.0190 o          1 8Q4      -0.516500
     27 CL           6.0430     2.1820    -0.4840 cl         1 8Q4      -0.116400
     28 H1          -2.7790    -3.7590    -0.2270 hc         1 8Q4       0.048700
     29 H2          -2.2010    -2.8310    -1.6180 hc         1 8Q4       0.048700
     30 H3          -1.1070    -3.2270    -0.2910 hc         1 8Q4       0.048700
     31 H4          -4.5100    -2.8900    -1.2890 ha         1 8Q4       0.135000
     32 H5          -3.2290    -2.5780     1.9830 hc         1 8Q4       0.048700
     33 H6          -1.4930    -2.2760     2.0200 hc         1 8Q4       0.048700
     34 H7          -2.6270    -0.9410     2.2480 hc         1 8Q4       0.048700
     35 H8           2.5200    -1.0990    -0.2260 ha         1 8Q4       0.166000
     36 H9          -7.4550     0.1660    -0.9760 ha         1 8Q4       0.126000
     37 H10         -6.7430    -2.0320    -1.7810 ha         1 8Q4       0.126000
     38 H11         -3.6230     0.7130     0.8490 ha         1 8Q4       0.144000
     39 H12         -7.9110     2.2200    -0.4370 hc         1 8Q4       0.039033
     40 H13         -7.1570     3.6930     0.1560 hc         1 8Q4       0.039033
     41 H14         -6.5410     2.8970    -1.2960 hc         1 8Q4       0.039033
     42 H15         -4.9170     1.7950     2.3600 ha         1 8Q4       0.116500
     43 H16         -5.8640     3.3490     2.0890 ha         1 8Q4       0.116500
     44 H17          3.6300     3.6730    -0.8140 ha         1 8Q4       0.121000
     45 H18          1.2810     2.9740    -0.8280 ha         1 8Q4       0.105000
     46 H19         -1.9420     0.0450    -0.9430 hn         1 8Q4       0.300500
     47 H20         -0.2290     1.2730    -0.9650 hn         1 8Q4       0.297500
@<TRIPOS>BOND
     1     1    18 1   
     2     1    28 1   
     3     1    29 1   
     4     1    30 1   
     5     2    19 1   
     6     2    23 1   
     7     3     4 ar  
     8     3    12 ar  
     9     3    31 1   
    10     4    13 ar  
    11     4    18 1   
    12     5    18 1   
    13     5    32 1   
    14     5    33 1   
    15     5    34 1   
    16     6     8 ar  
    17     6    13 ar  
    18     6    14 1   
    19     7    11 ar  
    20     7    19 ar  
    21     7    35 1   
    22     8    12 ar  
    23     8    36 1   
    24     9    23 1   
    25    10    17 2   
    26    11    22 ar  
    27    11    25 1   
    28    12    37 1   
    29    13    38 1   
    30    14    15 1   
    31    14    16 2   
    32    15    39 1   
    33    15    40 1   
    34    15    41 1   
    35    16    42 1   
    36    16    43 1   
    37    17    24 1   
    38    17    25 1   
    39    18    24 1   
    40    19    20 ar  
    41    20    21 ar  
    42    20    27 1   
    43    21    22 ar  
    44    21    44 1   
    45    22    45 1   
    46    23    26 1   
    47    24    46 1   
    48    25    47 1   
@<TRIPOS>SUBSTRUCTURE
     1 8Q4         1 TEMP              0 ****  ****    0 ROOT
