@<TRIPOS>MOLECULE
8Q5
   49    52     1     0     0
SMALL
No Charge or Current Charge


@<TRIPOS>ATOM
      1 OAZ          5.8050     1.5840     0.8080 o          1 8Q5      -0.592100
      2 CAU          5.3200     0.5120     0.4670 c          1 8Q5       0.613700
      3 NAV          6.1220    -0.5420     0.0800 ns         1 8Q5      -0.482900
      4 CAW          7.5580    -0.4980     0.0310 cx         1 8Q5       0.050700
      5 CAY          8.2690    -1.6290    -0.6700 cx         1 8Q5      -0.136900
      6 CAX          8.2050    -0.2640    -1.3120 cx         1 8Q5      -0.136900
      7 CAR          3.8220     0.2740     0.4480 ca         1 8Q5      -0.147600
      8 CAQ          3.2560    -0.9620     0.0500 ca         1 8Q5      -0.071000
      9 CAP          1.8620    -1.1420     0.0460 ca         1 8Q5      -0.111000
     10 CAO          0.9990    -0.1000     0.4290 ca         1 8Q5       0.007200
     11 CAT          1.5560     1.1270     0.8340 ca         1 8Q5      -0.111000
     12 CAS          2.9490     1.3130     0.8420 ca         1 8Q5      -0.071000
     13 CAN         -0.4510    -0.3050     0.4280 cc         1 8Q5      -0.124300
     14 NAD         -1.4910     0.5560     0.2230 na         1 8Q5       0.184100
     15 CAC         -1.3880     1.7360    -0.5000 cc         1 8Q5      -0.243000
     16 CAB         -2.5930     2.3960    -0.7630 cd         1 8Q5       0.362900
     17 NAA         -3.8620     1.8610    -0.4690 nd         1 8Q5      -0.779000
     18 CAF         -3.8270     0.6450     0.0270 cc         1 8Q5       0.682900
     19 CAE         -2.6620    -0.0850     0.3540 cc         1 8Q5      -0.176000
     20 NAL         -2.4550    -1.3230     0.7940 nd         1 8Q5      -0.284600
     21 CAM         -1.0680    -1.4680     0.8460 cd         1 8Q5      -0.030400
     22 NAG         -5.0110     0.0150     0.2400 nu         1 8Q5      -0.913100
     23 CAH         -6.3460     0.4590    -0.1860 c3         1 8Q5       0.227800
     24 CAI         -7.4130    -0.6370     0.0700 c3         1 8Q5      -0.078700
     25 CAJ         -8.8410    -0.0710    -0.1070 c3         1 8Q5      -0.087600
     26 CAK         -7.2050    -1.8880    -0.8200 c3         1 8Q5      -0.087600
     27 H1           5.6480    -1.3960    -0.1810 hn         1 8Q5       0.319500
     28 H2           8.0300    -0.0640     0.9150 h1         1 8Q5       0.091700
     29 H3           9.2230    -1.9540    -0.2620 hc         1 8Q5       0.077700
     30 H4           7.6680    -2.4230    -1.1080 hc         1 8Q5       0.077700
     31 H5           7.5570    -0.1380    -2.1760 hc         1 8Q5       0.077700
     32 H6           9.1160     0.3290    -1.3340 hc         1 8Q5       0.077700
     33 H7           3.8790    -1.7960    -0.2620 ha         1 8Q5       0.125500
     34 H8           1.4520    -2.0980    -0.2710 ha         1 8Q5       0.122000
     35 H9           0.9120     1.9390     1.1630 ha         1 8Q5       0.122000
     36 H10          3.3490     2.2730     1.1610 ha         1 8Q5       0.125500
     37 H11         -0.4090     2.1040    -0.7660 h4         1 8Q5       0.157000
     38 H12         -2.6010     3.3650    -1.2460 h4         1 8Q5       0.029100
     39 H13         -0.6010    -2.3920     1.1790 h4         1 8Q5       0.230000
     40 H14         -4.8880    -0.9420     0.5580 hn         1 8Q5       0.516000
     41 H15         -6.6220     1.3640     0.3740 h1         1 8Q5       0.057200
     42 H16         -6.3420     0.7190    -1.2540 h1         1 8Q5       0.057200
     43 H17         -7.3250    -0.9530     1.1180 hc         1 8Q5       0.046700
     44 H18         -9.0010     0.2700    -1.1380 hc         1 8Q5       0.037367
     45 H19         -9.5930    -0.8350     0.1230 hc         1 8Q5       0.037367
     46 H20         -9.0080     0.7790     0.5650 hc         1 8Q5       0.037367
     47 H21         -7.9700    -2.6450    -0.6080 hc         1 8Q5       0.037367
     48 H22         -7.2700    -1.6250    -1.8830 hc         1 8Q5       0.037367
     49 H23         -6.2250    -2.3460    -0.6400 hc         1 8Q5       0.037367
@<TRIPOS>BOND
     1     1     2 2   
     2     2     3 1   
     3     2     7 1   
     4     3     4 1   
     5     3    27 1   
     6     4     5 1   
     7     4     6 1   
     8     4    28 1   
     9     5     6 1   
    10     5    29 1   
    11     5    30 1   
    12     6    31 1   
    13     6    32 1   
    14     7     8 ar  
    15     7    12 ar  
    16     8     9 ar  
    17     8    33 1   
    18     9    10 ar  
    19     9    34 1   
    20    10    11 ar  
    21    10    13 1   
    22    11    12 ar  
    23    11    35 1   
    24    12    36 1   
    25    13    14 1   
    26    13    21 2   
    27    14    15 1   
    28    14    19 1   
    29    15    16 2   
    30    15    37 1   
    31    16    17 1   
    32    16    38 1   
    33    17    18 2   
    34    18    19 1   
    35    18    22 1   
    36    19    20 2   
    37    20    21 1   
    38    21    39 1   
    39    22    23 1   
    40    22    40 1   
    41    23    24 1   
    42    23    41 1   
    43    23    42 1   
    44    24    25 1   
    45    24    26 1   
    46    24    43 1   
    47    25    44 1   
    48    25    45 1   
    49    25    46 1   
    50    26    47 1   
    51    26    48 1   
    52    26    49 1   
@<TRIPOS>SUBSTRUCTURE
     1 8Q5         1 TEMP              0 ****  ****    0 ROOT
