@<TRIPOS>MOLECULE
8Q5
   49    52     1     0     0
SMALL
bcc


@<TRIPOS>ATOM
      1 OAZ          5.7610     1.2940     0.9840 o          1 8Q5      -0.592100
      2 CAU          5.2580     0.2800     0.5220 c          1 8Q5       0.680700
      3 NAV          5.9870    -0.6900    -0.0580 ns         1 8Q5      -0.549900
      4 CAW          7.4090    -0.6240    -0.1320 cx         1 8Q5       0.050700
      5 CAY          8.0710    -1.2010    -1.3390 cx         1 8Q5      -0.136900
      6 CAX          8.0500     0.2830    -1.1350 cx         1 8Q5      -0.136900
      7 CAR          3.7790     0.0630     0.5660 ca         1 8Q5      -0.147600
      8 CAQ          3.1930    -1.2010     0.5500 ca         1 8Q5      -0.089000
      9 CAP          1.8170    -1.3410     0.6040 ca         1 8Q5      -0.129000
     10 CAO          0.9870    -0.2220     0.6840 ca         1 8Q5       0.007200
     11 CAT          1.5790     1.0430     0.7230 ca         1 8Q5      -0.129000
     12 CAS          2.9540     1.1800     0.6680 ca         1 8Q5      -0.089000
     13 CAN         -0.4540    -0.4110     0.7780 cc         1 8Q5      -0.124300
     14 NAD         -1.4030     0.3610     0.1590 na         1 8Q5       0.082700
     15 CAC         -1.3160     1.4120    -0.7320 cc         1 8Q5      -0.275600
     16 CAB         -2.4800     1.9300    -1.1820 cd         1 8Q5       0.428200
     17 NAA         -3.7170     1.4990    -0.8230 nd         1 8Q5      -0.779000
     18 CAF         -3.8010     0.4800    -0.0020 cc         1 8Q5       0.748200
     19 CAE         -2.6190    -0.1420     0.5220 cc         1 8Q5      -0.190600
     20 NAL         -2.5050    -1.1770     1.3300 nd         1 8Q5      -0.284600
     21 CAM         -1.1780    -1.3510     1.4870 cd         1 8Q5       0.019600
     22 NAG         -4.9830    -0.0300     0.3660 nu         1 8Q5      -0.857900
     23 CAH         -6.2610     0.5030    -0.0450 c3         1 8Q5       0.227800
     24 CAI         -7.3500    -0.5650    -0.0050 c3         1 8Q5      -0.078700
     25 CAJ         -8.6980     0.0750    -0.3150 c3         1 8Q5      -0.087600
     26 CAK         -7.0530    -1.7070    -0.9720 c3         1 8Q5      -0.087600
     27 H1           5.5280    -1.4890    -0.4630 hn         1 8Q5       0.319500
     28 H2           7.9210    -0.7480     0.8170 h1         1 8Q5       0.091700
     29 H3           9.0010    -1.7330    -1.1910 hc         1 8Q5       0.077700
     30 H4           7.4390    -1.6140    -2.1160 hc         1 8Q5       0.077700
     31 H5           7.3940     0.8680    -1.7660 hc         1 8Q5       0.077700
     32 H6           8.9670     0.7820    -0.8490 hc         1 8Q5       0.077700
     33 H7           3.7960    -2.0990     0.5110 ha         1 8Q5       0.143500
     34 H8           1.3830    -2.3330     0.5770 ha         1 8Q5       0.140000
     35 H9           0.9690     1.9310     0.8310 ha         1 8Q5       0.140000
     36 H10          3.3900     2.1690     0.7090 ha         1 8Q5       0.143500
     37 H11         -0.3410     1.7560    -1.0350 h4         1 8Q5       0.175000
     38 H12         -2.4460     2.7550    -1.8810 h4         1 8Q5       0.029100
     39 H13         -0.7730    -2.1280     2.1180 h4         1 8Q5       0.180000
     40 H14         -4.9740    -0.7410     1.0810 hn         1 8Q5       0.460800
     41 H15         -6.5480     1.3480     0.5920 h1         1 8Q5       0.057200
     42 H16         -6.1650     0.8930    -1.0600 h1         1 8Q5       0.057200
     43 H17         -7.3910    -0.9710     1.0130 hc         1 8Q5       0.046700
     44 H18         -8.7050     0.4990    -1.3210 hc         1 8Q5       0.037367
     45 H19         -9.5010    -0.6610    -0.2610 hc         1 8Q5       0.037367
     46 H20         -8.9340     0.8760     0.3870 hc         1 8Q5       0.037367
     47 H21         -7.8370    -2.4650    -0.9300 hc         1 8Q5       0.037367
     48 H22         -7.0030    -1.3380    -1.9990 hc         1 8Q5       0.037367
     49 H23         -6.1060    -2.1990    -0.7490 hc         1 8Q5       0.037367
@<TRIPOS>BOND
     1     1     2 2   
     2     2     3 1   
     3     2     7 1   
     4     3     4 1   
     5     3    27 1   
     6     4     5 1   
     7     4     6 1   
     8     4    28 1   
     9     5     6 1   
    10     5    29 1   
    11     5    30 1   
    12     6    31 1   
    13     6    32 1   
    14     7     8 ar  
    15     7    12 ar  
    16     8     9 ar  
    17     8    33 1   
    18     9    10 ar  
    19     9    34 1   
    20    10    11 ar  
    21    10    13 1   
    22    11    12 ar  
    23    11    35 1   
    24    12    36 1   
    25    13    14 1   
    26    13    21 2   
    27    14    15 1   
    28    14    19 1   
    29    15    16 2   
    30    15    37 1   
    31    16    17 1   
    32    16    38 1   
    33    17    18 2   
    34    18    19 1   
    35    18    22 1   
    36    19    20 2   
    37    20    21 1   
    38    21    39 1   
    39    22    23 1   
    40    22    40 1   
    41    23    24 1   
    42    23    41 1   
    43    23    42 1   
    44    24    25 1   
    45    24    26 1   
    46    24    43 1   
    47    25    44 1   
    48    25    45 1   
    49    25    46 1   
    50    26    47 1   
    51    26    48 1   
    52    26    49 1   
@<TRIPOS>SUBSTRUCTURE
     1 8Q5         1 TEMP              0 ****  ****    0 ROOT
