@<TRIPOS>MOLECULE
8Q6
   48    49     1     0     0
SMALL
No Charge or Current Charge


@<TRIPOS>ATOM
      1 CAA          4.3310     4.1970     1.4600 c3         1 8Q6      -0.096100
      2 CAB         -4.3730    -3.6380     1.8080 c3         1 8Q6       0.153900
      3 CAC         -6.0650     2.9360    -0.7840 c3         1 8Q6       0.153900
      4 CAD          4.5140    -3.9710    -1.8740 c3         1 8Q6      -0.194100
      5 CAH          4.5700    -1.1890    -0.6840 ca         1 8Q6      -0.055000
      6 CAI          4.6270     0.1070    -0.1480 ca         1 8Q6      -0.195000
      7 CAJ         -0.7500    -0.5380     0.5200 ca         1 8Q6      -0.103500
      8 CAK         -1.3140     1.6590    -0.3370 ca         1 8Q6      -0.103500
      9 CAL         -3.0840     0.1090     0.2850 ca         1 8Q6      -0.050000
     10 CAM          2.1520    -1.0050    -0.8610 ca         1 8Q6      -0.069000
     11 CAN          4.6960     2.7980     0.9380 c3         1 8Q6       0.167600
     12 CAT         -2.5250    -2.2060     1.2080 c          1 8Q6       0.605700
     13 CAU         -3.7140     2.4190    -0.6060 c          1 8Q6       0.605700
     14 CAV         -0.3430     0.7070     0.0090 ca         1 8Q6       0.309000
     15 CAW          3.3320    -1.7620    -1.0550 ca         1 8Q6      -0.186600
     16 CAX         -2.1190    -0.8550     0.6590 ca         1 8Q6      -0.118600
     17 CAY         -2.6920     1.3740    -0.2110 ca         1 8Q6      -0.118600
     18 CAZ          2.1910     0.2870    -0.3000 ca         1 8Q6       0.262000
     19 CBA          3.4450     0.8570     0.0420 ca         1 8Q6       0.134100
     20 OAE          2.1570    -3.6300    -1.9690 o          1 8Q6      -0.523100
     21 OAF         -1.7110    -3.0590     1.5400 o          1 8Q6      -0.488000
     22 OAG         -3.4030     3.5220    -1.0360 o          1 8Q6      -0.488000
     23 OAP         -3.8830    -2.3840     1.2980 os         1 8Q6      -0.437100
     24 OAQ         -5.0150     2.0140    -0.4370 os         1 8Q6      -0.437100
     25 OAR          3.4730     2.1450     0.5590 os         1 8Q6      -0.356100
     26 H1           3.8270     4.7810     0.6810 hc         1 8Q6       0.050033
     27 H2           3.6670     4.1230     2.3300 hc         1 8Q6       0.050033
     28 H3           5.2360     4.7360     1.7640 hc         1 8Q6       0.050033
     29 H4          -4.0180    -3.8100     2.8330 h1         1 8Q6       0.049533
     30 H5          -5.4700    -3.6410     1.8240 h1         1 8Q6       0.049533
     31 H6          -4.0400    -4.4740     1.1800 h1         1 8Q6       0.049533
     32 H7          -6.0120     3.2090    -1.8460 h1         1 8Q6       0.049533
     33 H8          -7.0470     2.4820    -0.6000 h1         1 8Q6       0.049533
     34 H9          -5.9960     3.8530    -0.1850 h1         1 8Q6       0.049533
     35 H10          5.0490    -4.0610    -0.9220 hc         1 8Q6       0.060367
     36 H11          4.3130    -4.9540    -2.3140 hc         1 8Q6       0.060367
     37 H12          5.2110    -3.3920    -2.4900 hc         1 8Q6       0.060367
     38 H13          5.5020    -1.7330    -0.8150 ha         1 8Q6       0.116000
     39 H14          5.6000     0.5130     0.1130 ha         1 8Q6       0.120000
     40 H15          0.0020    -1.2560     0.8300 ha         1 8Q6       0.143000
     41 H16         -0.9920     2.6240    -0.7200 ha         1 8Q6       0.143000
     42 H17         -4.1430    -0.1230     0.3880 ha         1 8Q6       0.149000
     43 H18          1.1950    -1.4160    -1.1670 ha         1 8Q6       0.147000
     44 H19          5.3700     2.8950     0.0760 h1         1 8Q6       0.037200
     45 H20          5.2100     2.2360     1.7280 h1         1 8Q6       0.037200
     46 H21          1.2060     2.0330     0.0040 hn         1 8Q6       0.509000
     47 NAO          1.0100     1.0370    -0.1200 nu         1 8Q6      -0.989000
     48 CAS          3.2400    -3.1520    -1.6560 c          1 8Q6       0.586700
@<TRIPOS>BOND
     1     1    11 1   
     2     1    26 1   
     3     1    27 1   
     4     1    28 1   
     5     2    23 1   
     6     2    29 1   
     7     2    30 1   
     8     2    31 1   
     9     3    24 1   
    10     3    32 1   
    11     3    33 1   
    12     3    34 1   
    13     4    35 1   
    14     4    36 1   
    15     4    37 1   
    16     4    48 1   
    17     5     6 ar  
    18     5    15 ar  
    19     5    38 1   
    20     6    19 ar  
    21     6    39 1   
    22     7    14 ar  
    23     7    16 ar  
    24     7    40 1   
    25     8    14 ar  
    26     8    17 ar  
    27     8    41 1   
    28     9    16 ar  
    29     9    17 ar  
    30     9    42 1   
    31    10    15 ar  
    32    10    18 ar  
    33    10    43 1   
    34    11    25 1   
    35    11    44 1   
    36    11    45 1   
    37    12    16 1   
    38    12    21 2   
    39    12    23 1   
    40    13    17 1   
    41    13    22 2   
    42    13    24 1   
    43    14    47 1   
    44    15    48 1   
    45    18    19 ar  
    46    18    47 1   
    47    19    25 1   
    48    20    48 2   
    49    46    47 1   
@<TRIPOS>SUBSTRUCTURE
     1 8Q6         1 TEMP              0 ****  ****    0 ROOT
