@<TRIPOS>MOLECULE
8Q6
   48    49     1     0     0
SMALL
abcg2


@<TRIPOS>ATOM
      1 CAA          4.1580     4.0550     1.5140 c3         1 8Q6      -0.096100
      2 CAB         -3.9930    -3.5800     1.8350 c3         1 8Q6       0.153900
      3 CAC         -5.9690     2.9030    -0.6620 c3         1 8Q6       0.153900
      4 CAD          4.3540    -3.9490    -1.7170 c3         1 8Q6      -0.194100
      5 CAH          4.4200    -1.2420    -0.5660 ca         1 8Q6      -0.055000
      6 CAI          4.4860     0.0370    -0.0310 ca         1 8Q6      -0.195000
      7 CAJ         -0.6590    -0.4470     0.3620 ca         1 8Q6      -0.103500
      8 CAK         -1.3190     1.6960    -0.4870 ca         1 8Q6      -0.103500
      9 CAL         -3.0030     0.1410     0.2700 ca         1 8Q6      -0.050000
     10 CAM          2.0870    -0.9260    -1.0270 ca         1 8Q6      -0.069000
     11 CAN          4.5020     2.6690     1.0250 c3         1 8Q6       0.167600
     12 CAT         -2.2910    -2.1020     1.1620 c          1 8Q6       0.605700
     13 CAU         -3.6700     2.4090    -0.6030 c          1 8Q6       0.605700
     14 CAV         -0.3010     0.7860    -0.1860 ca         1 8Q6       0.309000
     15 CAW          3.2240    -1.7390    -1.0690 ca         1 8Q6      -0.186600
     16 CAX         -1.9940    -0.7640     0.5770 ca         1 8Q6      -0.118600
     17 CAY         -2.6500     1.3810    -0.2550 ca         1 8Q6      -0.118600
     18 CAZ          2.1200     0.3360    -0.4660 ca         1 8Q6       0.262000
     19 CBA          3.3480     0.8300     0.0320 ca         1 8Q6       0.134100
     20 OAE          2.0560    -3.4960    -2.1020 o          1 8Q6      -0.523100
     21 OAF         -1.4390    -2.8930     1.4890 o          1 8Q6      -0.488000
     22 OAG         -3.3990     3.4940    -1.0560 o          1 8Q6      -0.488000
     23 OAP         -3.5860    -2.3280     1.2820 os         1 8Q6      -0.437100
     24 OAQ         -4.9030     2.0020    -0.3610 os         1 8Q6      -0.437100
     25 OAR          3.3070     2.0690     0.5320 os         1 8Q6      -0.356100
     26 H1           3.7540     4.6710     0.7110 hc         1 8Q6       0.050033
     27 H2           3.4360     4.0230     2.3290 hc         1 8Q6       0.050033
     28 H3           5.0610     4.5390     1.8850 hc         1 8Q6       0.050033
     29 H4          -3.6350    -3.6960     2.8580 h1         1 8Q6       0.049533
     30 H5          -5.0780    -3.5670     1.8320 h1         1 8Q6       0.049533
     31 H6          -3.6380    -4.4150     1.2310 h1         1 8Q6       0.049533
     32 H7          -5.9800     3.1660    -1.7190 h1         1 8Q6       0.049533
     33 H8          -6.8830     2.3740    -0.4110 h1         1 8Q6       0.049533
     34 H9          -5.9000     3.8120    -0.0650 h1         1 8Q6       0.049533
     35 H10          4.7500    -4.1230    -0.7150 hc         1 8Q6       0.060367
     36 H11          4.1270    -4.9090    -2.1750 hc         1 8Q6       0.060367
     37 H12          5.1430    -3.4640    -2.2930 hc         1 8Q6       0.060367
     38 H13          5.3230    -1.8370    -0.5850 ha         1 8Q6       0.116000
     39 H14          5.4330     0.3950     0.3480 ha         1 8Q6       0.120000
     40 H15          0.1010    -1.1650     0.6360 ha         1 8Q6       0.143000
     41 H16         -1.0600     2.6600    -0.9060 ha         1 8Q6       0.143000
     42 H17         -4.0390    -0.1100     0.4380 ha         1 8Q6       0.149000
     43 H18          1.1620    -1.2960    -1.4510 ha         1 8Q6       0.147000
     44 H19          5.2520     2.7160     0.2280 h1         1 8Q6       0.037200
     45 H20          4.9150     2.0640     1.8370 h1         1 8Q6       0.037200
     46 H21          1.1710     2.1520    -0.4930 hn         1 8Q6       0.509000
     47 NAO          1.0040     1.1630    -0.4050 nu         1 8Q6      -0.989000
     48 CAS          3.1170    -3.0920    -1.6660 c          1 8Q6       0.586700
@<TRIPOS>BOND
     1     1    11 1   
     2     1    26 1   
     3     1    27 1   
     4     1    28 1   
     5     2    23 1   
     6     2    29 1   
     7     2    30 1   
     8     2    31 1   
     9     3    24 1   
    10     3    32 1   
    11     3    33 1   
    12     3    34 1   
    13     4    35 1   
    14     4    36 1   
    15     4    37 1   
    16     4    48 1   
    17     5     6 ar  
    18     5    15 ar  
    19     5    38 1   
    20     6    19 ar  
    21     6    39 1   
    22     7    14 ar  
    23     7    16 ar  
    24     7    40 1   
    25     8    14 ar  
    26     8    17 ar  
    27     8    41 1   
    28     9    16 ar  
    29     9    17 ar  
    30     9    42 1   
    31    10    15 ar  
    32    10    18 ar  
    33    10    43 1   
    34    11    25 1   
    35    11    44 1   
    36    11    45 1   
    37    12    16 1   
    38    12    21 2   
    39    12    23 1   
    40    13    17 1   
    41    13    22 2   
    42    13    24 1   
    43    14    47 1   
    44    15    48 1   
    45    18    19 ar  
    46    18    47 1   
    47    19    25 1   
    48    20    48 2   
    49    46    47 1   
@<TRIPOS>SUBSTRUCTURE
     1 8Q6         1 TEMP              0 ****  ****    0 ROOT
