@<TRIPOS>MOLECULE
8Q7
   52    57     1     0     0
SMALL
abcg2


@<TRIPOS>ATOM
      1 N1          -2.1910     1.1700    -1.4290 n          1 8Q7      -0.273000
      2 C4          -0.7680     3.1110    -0.0520 cc         1 8Q7       0.551000
      3 C6          -2.7130     2.4420    -1.4280 c          1 8Q7       0.593800
      4 C8          -1.2860     5.1220     0.1190 cd         1 8Q7       0.537900
      5 C13          2.0850    -1.0200     0.7180 c6         1 8Q7       0.187300
      6 C15          2.7080     0.8570     2.1440 c6         1 8Q7       0.094000
      7 C20         -3.3430    -2.2440    -1.3930 ca         1 8Q7      -0.051500
      8 C21         -3.9450    -3.1720    -0.5640 ca         1 8Q7      -0.173000
      9 C22         -4.7760    -2.7490     0.4740 ca         1 8Q7       0.157100
     10 C24         -4.3940    -0.4680    -0.1940 ca         1 8Q7      -0.051500
     11 C26         -6.1600    -3.3370     2.3100 c3         1 8Q7       0.146900
     12 C28          4.7970    -1.3090    -0.1660 cx         1 8Q7      -0.266700
     13 C23         -4.9990    -1.3840     0.6550 ca         1 8Q7      -0.173000
     14 C3          -0.2760     1.7810    -0.0670 cc         1 8Q7      -0.230500
     15 C12          0.8870     1.2050     0.5290 cc         1 8Q7       0.002700
     16 C19         -3.5550    -0.8790    -1.2220 ca         1 8Q7      -0.170300
     17 C11          0.9830    -0.1180     0.2510 cd         1 8Q7      -0.279300
     18 C2          -1.0300     0.8680    -0.7610 cd         1 8Q7      -0.035400
     19 C16          1.8980     1.9000     1.3840 c6         1 8Q7      -0.042100
     20 C31          4.7390    -2.7900     0.2320 cx         1 8Q7      -0.170400
     21 C30          6.0190    -2.0920     0.0710 cx         1 8Q7       0.183000
     22 C18         -2.9060     0.1130    -2.1490 c3         1 8Q7       0.151300
     23 N7          -0.3400     4.2240     0.4870 nd         1 8Q7      -0.690000
     24 N9          -2.2650     4.6510    -0.6050 nc         1 8Q7      -0.483800
     25 N5          -1.9340     3.3520    -0.7190 n          1 8Q7      -0.058500
     26 N14          3.1540    -0.1970     1.2470 n          1 8Q7      -0.403800
     27 O17         -3.7390     2.7650    -1.9750 o          1 8Q7      -0.487000
     28 O29          5.2490     0.6330     1.1050 o          1 8Q7      -0.567100
     29 F32          6.7730    -1.8480     1.1560 f          1 8Q7      -0.073000
     30 F33          6.8290    -2.3850    -0.9620 f          1 8Q7      -0.073000
     31 S10         -0.3390    -0.7050    -0.7070 ss         1 8Q7       0.251000
     32 H1          -1.2440     6.1630     0.4010 h5         1 8Q7       0.069100
     33 H2           1.7170    -1.7040     1.4900 h1         1 8Q7       0.060200
     34 H3           2.4460    -1.6310    -0.1060 h1         1 8Q7       0.060200
     35 H4           3.5660     1.3070     2.6330 h1         1 8Q7       0.068200
     36 H5           2.0870     0.3980     2.9180 h1         1 8Q7       0.068200
     37 H6          -2.6950    -2.5930    -2.1890 ha         1 8Q7       0.117500
     38 H7          -3.7670    -4.2310    -0.7090 ha         1 8Q7       0.127500
     39 H8          -4.5940     0.5850    -0.0370 ha         1 8Q7       0.117500
     40 H9          -7.0520    -2.8100     1.9600 h1         1 8Q7       0.044367
     41 H10         -6.4670    -4.2570     2.7990 h1         1 8Q7       0.044367
     42 H11         -5.6430    -2.7070     3.0380 h1         1 8Q7       0.044367
     43 H12          4.5610    -1.0980    -1.2060 hc         1 8Q7       0.120700
     44 H13         -5.6390    -1.0170     1.4450 ha         1 8Q7       0.127500
     45 H14          1.4050     2.5710     2.0890 hc         1 8Q7       0.081700
     46 H15          2.5540     2.5210     0.7680 hc         1 8Q7       0.081700
     47 H16          4.4200    -3.0270     1.2400 hc         1 8Q7       0.099200
     48 H17          4.4220    -3.4930    -0.5270 hc         1 8Q7       0.099200
     49 H18         -3.6410     0.5990    -2.7860 h1         1 8Q7       0.080700
     50 H19         -2.1960    -0.3840    -2.8150 h1         1 8Q7       0.080700
     51 C27          4.4230    -0.2050     0.7830 c          1 8Q7       0.640100
     52 O25         -5.3140    -3.7140     1.2410 os         1 8Q7      -0.339100
@<TRIPOS>BOND
     1     1     3 1   
     2     1    18 1   
     3     1    22 1   
     4     2    14 1   
     5     2    23 2   
     6     2    25 1   
     7     3    25 1   
     8     3    27 2   
     9     4    23 1   
    10     4    24 2   
    11     4    32 1   
    12     5    17 1   
    13     5    26 1   
    14     5    33 1   
    15     5    34 1   
    16     6    19 1   
    17     6    26 1   
    18     6    35 1   
    19     6    36 1   
    20     7     8 ar  
    21     7    16 ar  
    22     7    37 1   
    23     8     9 ar  
    24     8    38 1   
    25     9    13 ar  
    26     9    52 1   
    27    10    13 ar  
    28    10    16 ar  
    29    10    39 1   
    30    11    40 1   
    31    11    41 1   
    32    11    42 1   
    33    11    52 1   
    34    12    20 1   
    35    12    21 1   
    36    12    43 1   
    37    12    51 1   
    38    13    44 1   
    39    14    15 1   
    40    14    18 2   
    41    15    17 2   
    42    15    19 1   
    43    16    22 1   
    44    17    31 1   
    45    18    31 1   
    46    19    45 1   
    47    19    46 1   
    48    20    21 1   
    49    20    47 1   
    50    20    48 1   
    51    21    29 1   
    52    21    30 1   
    53    22    49 1   
    54    22    50 1   
    55    24    25 1   
    56    26    51 1   
    57    28    51 2   
@<TRIPOS>SUBSTRUCTURE
     1 8Q7         1 TEMP              0 ****  ****    0 ROOT
