@<TRIPOS>MOLECULE
8Q7
   52    57     1     0     0
SMALL
No Charge or Current Charge


@<TRIPOS>ATOM
      1 N1          -2.2840     1.1690    -1.4350 n          1 8Q7      -0.273000
      2 C4          -0.8210     3.1560    -0.0170 cc         1 8Q7       0.551000
      3 C6          -2.8030     2.4860    -1.3410 c          1 8Q7       0.593800
      4 C8          -1.2090     5.2040     0.3430 cd         1 8Q7       0.537900
      5 C13          2.2240    -0.9200     0.4740 c6         1 8Q7       0.187300
      6 C15          2.8060     1.0100     1.9560 c6         1 8Q7       0.094000
      7 C20         -3.4620    -2.2780    -1.4340 ca         1 8Q7      -0.051500
      8 C21         -4.0610    -3.2210    -0.5830 ca         1 8Q7      -0.173000
      9 C22         -4.9090    -2.8070     0.4550 ca         1 8Q7       0.157100
     10 C24         -4.5590    -0.4850    -0.2100 ca         1 8Q7      -0.051500
     11 C26         -6.3490    -3.4610     2.3510 c3         1 8Q7       0.146900
     12 C28          5.0590    -1.3970    -0.1030 cx         1 8Q7      -0.266700
     13 C23         -5.1590    -1.4300     0.6400 ca         1 8Q7      -0.173000
     14 C3          -0.3340     1.8060    -0.1240 cc         1 8Q7      -0.230500
     15 C12          0.8680     1.2470     0.4050 cc         1 8Q7       0.002700
     16 C19         -3.7040    -0.9030    -1.2490 ca         1 8Q7      -0.170300
     17 C11          1.0250    -0.0820     0.0830 cd         1 8Q7      -0.279300
     18 C2          -1.0690     0.8930    -0.8170 cd         1 8Q7      -0.035400
     19 C16          1.8870     2.0080     1.2170 c6         1 8Q7      -0.042100
     20 C31          4.8660    -2.8110     0.4200 cx         1 8Q7      -0.170400
     21 C30          6.2520    -2.2370     0.2970 cx         1 8Q7       0.183000
     22 C18         -3.0480     0.1260    -2.1670 c3         1 8Q7       0.151300
     23 N7          -0.2750     4.1980     0.5870 nd         1 8Q7      -0.690000
     24 N9          -2.2340     4.7520    -0.3670 nc         1 8Q7      -0.483800
     25 N5          -2.0210     3.4270    -0.6250 n          1 8Q7      -0.058500
     26 N14          3.3010    -0.0590     1.0450 n          1 8Q7      -0.403800
     27 O17         -3.8720     2.8050    -1.8500 o          1 8Q7      -0.487000
     28 O29          5.5180     0.5680     1.1800 o          1 8Q7      -0.567100
     29 F32          6.9530    -1.9650     1.4330 f          1 8Q7      -0.073000
     30 F33          7.0860    -2.7120    -0.6690 f          1 8Q7      -0.073000
     31 S10         -0.3310    -0.7190    -0.8720 ss         1 8Q7       0.251000
     32 H1          -1.0940     6.2220     0.6980 h5         1 8Q7       0.069100
     33 H2           1.9330    -1.6730     1.2210 h1         1 8Q7       0.060200
     34 H3           2.5750    -1.4570    -0.4170 h1         1 8Q7       0.060200
     35 H4           3.6380     1.5540     2.4240 h1         1 8Q7       0.068200
     36 H5           2.2370     0.5360     2.7700 h1         1 8Q7       0.068200
     37 H6          -2.8080    -2.6190    -2.2350 ha         1 8Q7       0.117500
     38 H7          -3.8680    -4.2810    -0.7300 ha         1 8Q7       0.127500
     39 H8          -4.7600     0.5730    -0.0590 ha         1 8Q7       0.117500
     40 H9          -7.2410    -2.9340     1.9910 h1         1 8Q7       0.044367
     41 H10         -6.6760    -4.3790     2.8550 h1         1 8Q7       0.044367
     42 H11         -5.8400    -2.8300     3.0900 h1         1 8Q7       0.044367
     43 H12          4.9220    -1.2340    -1.1680 hc         1 8Q7       0.120700
     44 H13         -5.8110    -1.0760     1.4330 ha         1 8Q7       0.127500
     45 H14          1.4110     2.6620     1.9580 hc         1 8Q7       0.081700
     46 H15          2.4910     2.6510     0.5630 hc         1 8Q7       0.081700
     47 H16          4.4660    -2.9420     1.4230 hc         1 8Q7       0.099200
     48 H17          4.5760    -3.5840    -0.2890 hc         1 8Q7       0.099200
     49 H18         -3.8260     0.5850    -2.7900 h1         1 8Q7       0.080700
     50 H19         -2.3660    -0.3790    -2.8630 h1         1 8Q7       0.080700
     51 C27          4.6770    -0.2170     0.7620 c          1 8Q7       0.640100
     52 O25         -5.4680    -3.7800     1.2590 os         1 8Q7      -0.339100
@<TRIPOS>BOND
     1     1     3 1   
     2     1    18 1   
     3     1    22 1   
     4     2    14 1   
     5     2    23 2   
     6     2    25 1   
     7     3    25 1   
     8     3    27 2   
     9     4    23 1   
    10     4    24 2   
    11     4    32 1   
    12     5    17 1   
    13     5    26 1   
    14     5    33 1   
    15     5    34 1   
    16     6    19 1   
    17     6    26 1   
    18     6    35 1   
    19     6    36 1   
    20     7     8 ar  
    21     7    16 ar  
    22     7    37 1   
    23     8     9 ar  
    24     8    38 1   
    25     9    13 ar  
    26     9    52 1   
    27    10    13 ar  
    28    10    16 ar  
    29    10    39 1   
    30    11    40 1   
    31    11    41 1   
    32    11    42 1   
    33    11    52 1   
    34    12    20 1   
    35    12    21 1   
    36    12    43 1   
    37    12    51 1   
    38    13    44 1   
    39    14    15 1   
    40    14    18 2   
    41    15    17 2   
    42    15    19 1   
    43    16    22 1   
    44    17    31 1   
    45    18    31 1   
    46    19    45 1   
    47    19    46 1   
    48    20    21 1   
    49    20    47 1   
    50    20    48 1   
    51    21    29 1   
    52    21    30 1   
    53    22    49 1   
    54    22    50 1   
    55    24    25 1   
    56    26    51 1   
    57    28    51 2   
@<TRIPOS>SUBSTRUCTURE
     1 8Q7         1 TEMP              0 ****  ****    0 ROOT
