@<TRIPOS>MOLECULE
8Q8
   66    69     1     0     0
SMALL
bcc


@<TRIPOS>ATOM
      1 C1           7.8460     0.0080     1.3600 c3         1 8Q8      -0.081100
      2 C8           2.7610     2.1450    -0.4000 ca         1 8Q8      -0.065300
      3 C7           3.5560     3.3770    -0.0670 c5         1 8Q8      -0.042100
      4 C6           4.6760     3.3460    -1.1210 c5         1 8Q8      -0.080400
      5 C5           4.9000     1.8550    -1.4170 c5         1 8Q8       0.223800
      6 C4           6.0470    -0.1110    -0.4500 c3         1 8Q8       0.073500
      7 C3           8.4630     0.0610    -1.0560 c3         1 8Q8      -0.081100
      8 C2           7.4960    -0.5220    -0.0280 c3         1 8Q8       0.202200
      9 N1           7.6830    -1.9670    -0.0150 n8         1 8Q8      -0.899800
     10 C9           3.5010     1.3020    -1.2270 ca         1 8Q8      -0.131300
     11 C10          2.9440     0.1320    -1.7170 ca         1 8Q8      -0.125000
     12 N2           5.8890     1.3250    -0.4820 n7         1 8Q8      -0.801200
     13 C13          1.4760     1.8110    -0.0210 ca         1 8Q8      -0.085000
     14 C12          0.9160     0.6140    -0.4860 ca         1 8Q8       0.039000
     15 C11          1.6540    -0.2170    -1.3390 ca         1 8Q8      -0.129000
     16 C27          4.9830    -0.7510     0.4460 c          1 8Q8       0.623100
     17 N5           4.5130    -1.9330     0.0030 ns         1 8Q8      -0.448400
     18 O3           3.4730    -2.5420     0.6360 oh         1 8Q8      -0.372100
     19 C15         -1.5570    -0.0130     0.1570 cg         1 8Q8      -0.103000
     20 C16         -2.9040    -0.3360     0.4770 ca         1 8Q8       0.037000
     21 C26         -3.7350     0.6090     1.0890 ca         1 8Q8      -0.108000
     22 C25         -5.0510     0.2990     1.3770 ca         1 8Q8      -0.116500
     23 C19         -5.5720    -0.9540     1.0650 ca         1 8Q8      -0.104300
     24 C18         -4.7450    -1.8950     0.4630 ca         1 8Q8      -0.116500
     25 C17         -3.4240    -1.5960     0.1720 ca         1 8Q8      -0.108000
     26 C20         -7.0060    -1.2880     1.3780 c3         1 8Q8       0.093600
     27 N3          -7.9320    -0.2960     0.8630 na         1 8Q8      -0.175900
     28 C23         -8.0960     0.0920    -0.4280 cc         1 8Q8       0.399800
     29 C24         -7.2990    -0.4390    -1.5690 c3         1 8Q8       0.111100
     30 O1          -7.4100    -1.8450    -1.6080 oh         1 8Q8      -0.598800
     31 N4          -9.0230     1.0130    -0.5310 nd         1 8Q8      -0.669000
     32 C22         -9.4760     1.2340     0.7370 cd         1 8Q8       0.299200
     33 C21         -8.8140     0.4290     1.6150 cc         1 8Q8      -0.264600
     34 H1           7.7000     1.0860     1.4270 hc         1 8Q8       0.044200
     35 H2           7.2510    -0.4640     2.1430 hc         1 8Q8       0.044200
     36 H3           8.8950    -0.1970     1.5750 hc         1 8Q8       0.044200
     37 H4           2.9580     4.2890    -0.1120 hc         1 8Q8       0.062200
     38 H5           3.9550     3.3150     0.9510 hc         1 8Q8       0.062200
     39 H6           4.3320     3.8430    -2.0300 hc         1 8Q8       0.060700
     40 H7           5.5930     3.8420    -0.8010 hc         1 8Q8       0.060700
     41 H8           5.2710     1.6840    -2.4310 h1         1 8Q8       0.073700
     42 H9           5.9210    -0.4810    -1.4750 h1         1 8Q8       0.052700
     43 H10          9.4870    -0.2230    -0.8080 hc         1 8Q8       0.044200
     44 H11          8.2460    -0.3110    -2.0600 hc         1 8Q8       0.044200
     45 H12          8.4000     1.1470    -1.0820 hc         1 8Q8       0.044200
     46 H13          7.0820    -2.4120     0.6670 hn         1 8Q8       0.346800
     47 H14          7.4510    -2.3710    -0.9150 hn         1 8Q8       0.346800
     48 H16          3.4910    -0.5010    -2.4040 ha         1 8Q8       0.127000
     49 H17          5.6910     1.6610     0.4540 hn         1 8Q8       0.387800
     50 H19          0.8940     2.4650     0.6160 ha         1 8Q8       0.145000
     51 H20          1.1990    -1.1200    -1.7270 ha         1 8Q8       0.137000
     52 H21          4.7080    -2.2790    -0.9250 hn         1 8Q8       0.324500
     53 H22          2.6720    -2.0670     0.3650 ho         1 8Q8       0.395000
     54 H23         -3.3440     1.5880     1.3350 ha         1 8Q8       0.141500
     55 H24         -5.6780     1.0480     1.8480 ha         1 8Q8       0.140500
     56 H25         -5.1350    -2.8730     0.2120 ha         1 8Q8       0.140500
     57 H26         -2.7940    -2.3370    -0.3030 ha         1 8Q8       0.141500
     58 H27         -7.2630    -2.2700     0.9850 h1         1 8Q8       0.072200
     59 H28         -7.1520    -1.3250     2.4580 h1         1 8Q8       0.072200
     60 H29         -7.6860     0.0320    -2.4790 h1         1 8Q8       0.048700
     61 H30         -6.2540    -0.1250    -1.4680 h1         1 8Q8       0.048700
     62 H31         -6.6570    -2.1910    -2.0940 ho         1 8Q8       0.406000
     63 H32        -10.2530     1.9520     0.9500 h4         1 8Q8       0.038100
     64 H33         -8.8900     0.3030     2.6830 h4         1 8Q8       0.172000
     65 O2           4.6010    -0.2340     1.4800 o          1 8Q8      -0.565100
     66 C14         -0.4170     0.2680    -0.1310 ch         1 8Q8      -0.102000
@<TRIPOS>BOND
     1     1     8 1   
     2     1    34 1   
     3     1    35 1   
     4     1    36 1   
     5     2     3 1   
     6     2    10 ar  
     7     2    13 ar  
     8     3     4 1   
     9     3    37 1   
    10     3    38 1   
    11     4     5 1   
    12     4    39 1   
    13     4    40 1   
    14     5    10 1   
    15     5    12 1   
    16     5    41 1   
    17     6     8 1   
    18     6    12 1   
    19     6    16 1   
    20     6    42 1   
    21     7     8 1   
    22     7    43 1   
    23     7    44 1   
    24     7    45 1   
    25     8     9 1   
    26     9    46 1   
    27     9    47 1   
    28    10    11 ar  
    29    11    15 ar  
    30    11    48 1   
    31    12    49 1   
    32    13    14 ar  
    33    13    50 1   
    34    14    15 ar  
    35    14    66 1   
    36    15    51 1   
    37    16    17 1   
    38    16    65 2   
    39    17    18 1   
    40    17    52 1   
    41    18    53 1   
    42    19    20 1   
    43    19    66 3   
    44    20    21 ar  
    45    20    25 ar  
    46    21    22 ar  
    47    21    54 1   
    48    22    23 ar  
    49    22    55 1   
    50    23    24 ar  
    51    23    26 1   
    52    24    25 ar  
    53    24    56 1   
    54    25    57 1   
    55    26    27 1   
    56    26    58 1   
    57    26    59 1   
    58    27    28 1   
    59    27    33 1   
    60    28    29 1   
    61    28    31 2   
    62    29    30 1   
    63    29    60 1   
    64    29    61 1   
    65    30    62 1   
    66    31    32 1   
    67    32    33 2   
    68    32    63 1   
    69    33    64 1   
@<TRIPOS>SUBSTRUCTURE
     1 8Q8         1 TEMP              0 ****  ****    0 ROOT
