@<TRIPOS>MOLECULE
8Q8
   66    69     1     0     0
SMALL
No Charge or Current Charge


@<TRIPOS>ATOM
      1 C1           7.9650     0.2950     1.6210 c3         1 8Q8      -0.081100
      2 C8           2.7470     2.0660    -0.6050 ca         1 8Q8      -0.065300
      3 C7           3.4770     3.3480    -0.3030 c5         1 8Q8      -0.042100
      4 C6           4.6590     3.2420    -1.3430 c5         1 8Q8      -0.080400
      5 C5           4.9330     1.7000    -1.5200 c5         1 8Q8       0.223800
      6 C4           6.2800    -0.1200    -0.3240 c3         1 8Q8       0.073500
      7 C3           8.7460     0.4380    -0.7820 c3         1 8Q8      -0.081100
      8 C2           7.7680    -0.2730     0.1900 c3         1 8Q8       0.202200
      9 N1           8.1750    -1.6960     0.2210 n8         1 8Q8      -1.010200
     10 C9           3.5420     1.1650    -1.2860 ca         1 8Q8      -0.131300
     11 C10          3.0280    -0.0720    -1.7060 ca         1 8Q8      -0.107000
     12 N2           5.8940     1.3300    -0.4530 n7         1 8Q8      -0.856400
     13 C13          1.4150     1.7590    -0.2830 ca         1 8Q8      -0.067000
     14 C12          0.8870     0.5120    -0.6770 ca         1 8Q8       0.039000
     15 C11          1.6940    -0.3990    -1.3930 ca         1 8Q8      -0.111000
     16 C27          5.2660    -0.9270     0.5600 c          1 8Q8       0.556100
     17 N5           4.8770    -2.1620     0.0450 ns         1 8Q8      -0.381400
     18 O3           4.1570    -3.1140     0.8610 oh         1 8Q8      -0.411100
     19 C15         -1.6190    -0.0960    -0.0860 cg         1 8Q8      -0.103000
     20 C16         -2.9810    -0.4020     0.2410 ca         1 8Q8       0.037000
     21 C26         -3.7370     0.4910     1.0220 ca         1 8Q8      -0.090000
     22 C25         -5.0730     0.1910     1.3430 ca         1 8Q8      -0.098500
     23 C19         -5.6660    -1.0030     0.8830 ca         1 8Q8      -0.104300
     24 C18         -4.9020    -1.8960     0.1060 ca         1 8Q8      -0.098500
     25 C17         -3.5670    -1.5960    -0.2150 ca         1 8Q8      -0.090000
     26 C20         -7.1170    -1.3350     1.2210 c3         1 8Q8       0.122900
     27 N3          -8.0450    -0.2100     1.0130 na         1 8Q8      -0.154500
     28 C23         -8.5210     0.2500    -0.2030 cc         1 8Q8       0.399800
     29 C24         -8.1440    -0.3360    -1.5580 c3         1 8Q8       0.134300
     30 O1          -8.7700    -1.6130    -1.8210 oh         1 8Q8      -0.661000
     31 N4          -9.3340     1.2850    -0.0220 nd         1 8Q8      -0.669000
     32 C22         -9.3820     1.4950     1.3400 cd         1 8Q8       0.233900
     33 C21         -8.5930     0.5870     1.9970 cc         1 8Q8      -0.232000
     34 H1           7.6860     1.3550     1.6670 hc         1 8Q8       0.044200
     35 H2           7.3620    -0.2480     2.3580 hc         1 8Q8       0.044200
     36 H3           9.0140     0.2150     1.9300 hc         1 8Q8       0.044200
     37 H4           2.8640     4.2430    -0.4610 hc         1 8Q8       0.062200
     38 H5           3.8420     3.3700     0.7310 hc         1 8Q8       0.062200
     39 H6           4.3440     3.6670    -2.3030 hc         1 8Q8       0.060700
     40 H7           5.5460     3.8070    -1.0350 hc         1 8Q8       0.060700
     41 H8           5.3160     1.4570    -2.5230 h1         1 8Q8       0.073700
     42 H9           6.2510    -0.5730    -1.3250 h1         1 8Q8       0.052700
     43 H10          9.7890     0.2600    -0.4930 hc         1 8Q8       0.044200
     44 H11          8.6120     0.0770    -1.8090 hc         1 8Q8       0.044200
     45 H12          8.5850     1.5220    -0.7830 hc         1 8Q8       0.044200
     46 H13          7.4460    -2.2650     0.6640 hn         1 8Q8       0.402000
     47 H14          8.2370    -2.0560    -0.7380 hn         1 8Q8       0.402000
     48 H16          3.6500    -0.7690    -2.2640 ha         1 8Q8       0.109000
     49 H17          5.5070     1.6300     0.4500 hn         1 8Q8       0.443000
     50 H19          0.8020     2.4760     0.2570 ha         1 8Q8       0.127000
     51 H20          1.2870    -1.3580    -1.7080 ha         1 8Q8       0.119000
     52 H21          5.3480    -2.5420    -0.7750 hn         1 8Q8       0.324500
     53 H22          3.3810    -3.3540     0.3040 ho         1 8Q8       0.434000
     54 H23         -3.2920     1.4160     1.3810 ha         1 8Q8       0.123500
     55 H24         -5.6440     0.8900     1.9500 ha         1 8Q8       0.122500
     56 H25         -5.3430    -2.8230    -0.2550 ha         1 8Q8       0.122500
     57 H26         -2.9880    -2.2930    -0.8180 ha         1 8Q8       0.123500
     58 H27         -7.4580    -2.1840     0.6150 h1         1 8Q8       0.072200
     59 H28         -7.1740    -1.6450     2.2730 h1         1 8Q8       0.072200
     60 H29         -8.4260     0.3870    -2.3350 h1         1 8Q8       0.048700
     61 H30         -7.0510    -0.4340    -1.5990 h1         1 8Q8       0.048700
     62 H31         -8.5090    -1.8830    -2.7300 ho         1 8Q8       0.445000
     63 H32         -9.9790     2.2890     1.7730 h4         1 8Q8       0.038100
     64 H33         -8.3920     0.4580     3.0530 h4         1 8Q8       0.154000
     65 O2           4.7980    -0.4850     1.6070 o          1 8Q8      -0.565100
     66 C14         -0.4620     0.1770    -0.3620 ch         1 8Q8      -0.102000
@<TRIPOS>BOND
     1     1     8 1   
     2     1    34 1   
     3     1    35 1   
     4     1    36 1   
     5     2     3 1   
     6     2    10 ar  
     7     2    13 ar  
     8     3     4 1   
     9     3    37 1   
    10     3    38 1   
    11     4     5 1   
    12     4    39 1   
    13     4    40 1   
    14     5    10 1   
    15     5    12 1   
    16     5    41 1   
    17     6     8 1   
    18     6    12 1   
    19     6    16 1   
    20     6    42 1   
    21     7     8 1   
    22     7    43 1   
    23     7    44 1   
    24     7    45 1   
    25     8     9 1   
    26     9    46 1   
    27     9    47 1   
    28    10    11 ar  
    29    11    15 ar  
    30    11    48 1   
    31    12    49 1   
    32    13    14 ar  
    33    13    50 1   
    34    14    15 ar  
    35    14    66 1   
    36    15    51 1   
    37    16    17 1   
    38    16    65 2   
    39    17    18 1   
    40    17    52 1   
    41    18    53 1   
    42    19    20 1   
    43    19    66 3   
    44    20    21 ar  
    45    20    25 ar  
    46    21    22 ar  
    47    21    54 1   
    48    22    23 ar  
    49    22    55 1   
    50    23    24 ar  
    51    23    26 1   
    52    24    25 ar  
    53    24    56 1   
    54    25    57 1   
    55    26    27 1   
    56    26    58 1   
    57    26    59 1   
    58    27    28 1   
    59    27    33 1   
    60    28    29 1   
    61    28    31 2   
    62    29    30 1   
    63    29    60 1   
    64    29    61 1   
    65    30    62 1   
    66    31    32 1   
    67    32    33 2   
    68    32    63 1   
    69    33    64 1   
@<TRIPOS>SUBSTRUCTURE
     1 8Q8         1 TEMP              0 ****  ****    0 ROOT
