@<TRIPOS>MOLECULE
8Q9
   63    66     1     0     0
SMALL
No Charge or Current Charge


@<TRIPOS>ATOM
      1 CAX         -6.4770    -2.2480    -1.4090 c6         1 8Q9       0.125300
      2 CAY         -7.8880    -2.8940    -1.5420 c6         1 8Q9       0.153100
      3 OAZ         -8.5360    -2.9520    -0.2500 os         1 8Q9      -0.446000
      4 CBA         -8.6800    -1.6470     0.3600 c6         1 8Q9       0.153100
      5 CBB         -7.2870    -0.9710     0.5310 c6         1 8Q9       0.125300
      6 NAW         -6.5400    -0.8980    -0.7670 n3         1 8Q9      -0.715600
      7 CAV         -5.1990    -0.2690    -0.6530 c3         1 8Q9       0.151800
      8 CAU         -5.2010     1.2100    -0.1910 c3         1 8Q9       0.101000
      9 NAT         -3.8650     1.8220    -0.2380 ns         1 8Q9      -0.507900
     10 CAR         -2.8280     1.5120     0.6200 c          1 8Q9       0.607100
     11 OAS         -2.9690     0.7090     1.5340 o          1 8Q9      -0.584100
     12 CAQ         -1.5040     2.2490     0.3210 c3         1 8Q9       0.075600
     13 OAL         -0.3980     1.7210     1.0880 os         1 8Q9      -0.320100
     14 CAB          0.8990     2.1720     0.9090 ca         1 8Q9       0.169100
     15 CAC          1.1700     3.3970     0.2490 ca         1 8Q9      -0.219000
     16 CAD          2.5070     3.7670     0.0830 ca         1 8Q9       0.126100
     17 OAG          2.9750     4.9000    -0.5240 os         1 8Q9      -0.116100
     18 NAH          4.4430     4.8300    -0.4570 nc         1 8Q9      -0.297700
     19 CAI          4.7270     3.6850     0.1740 cd         1 8Q9       0.407900
     20 CAJ          6.1420     3.2570     0.4330 c3         1 8Q9      -0.119400
     21 CAE          3.5240     2.9910     0.5280 ca         1 8Q9      -0.283900
     22 CAF          3.3070     1.7700     1.1820 ca         1 8Q9       0.051000
     23 CAA          1.9700     1.3520     1.3780 ca         1 8Q9       0.178000
     24 NAK          1.7030     0.1160     1.9840 nu         1 8Q9      -0.870100
     25 SAM          1.8250    -1.3570     1.1910 sy         1 8Q9       1.162600
     26 OAN          3.1630    -1.3170     0.5950 o          1 8Q9      -0.530000
     27 OAO          1.4620    -2.3280     2.2240 o          1 8Q9      -0.530000
     28 CAP          0.5830    -1.2340    -0.0980 ca         1 8Q9      -0.340500
     29 CBG          0.9390    -0.5450    -1.2780 ca         1 8Q9       0.052000
     30 CBF         -0.0040    -0.3550    -2.2980 ca         1 8Q9      -0.096900
     31 BrBJ         0.4820     0.6110    -3.8750 br         1 8Q9      -0.090100
     32 CBE         -1.3030    -0.8620    -2.1620 ca         1 8Q9      -0.002000
     33 CBD         -1.6620    -1.5510    -0.9930 ca         1 8Q9      -0.223000
     34 CBC         -0.7290    -1.7310     0.0540 ca         1 8Q9       0.263100
     35 OBH         -1.0870    -2.3730     1.2210 os         1 8Q9      -0.333100
     36 CBI         -2.4140    -2.8750     1.4630 c3         1 8Q9       0.150900
     37 H1          -5.8370    -2.9220    -0.8190 h1         1 8Q9       0.041950
     38 H2          -6.0280    -2.1740    -2.4110 h1         1 8Q9       0.041950
     39 H3          -8.5070    -2.3040    -2.2340 h1         1 8Q9       0.053950
     40 H4          -7.7980    -3.9120    -1.9470 h1         1 8Q9       0.053950
     41 H5          -9.3260    -1.0200    -0.2720 h1         1 8Q9       0.053950
     42 H6          -9.1650    -1.7580     1.3400 h1         1 8Q9       0.053950
     43 H7          -7.4430     0.0340     0.9480 h1         1 8Q9       0.041950
     44 H8          -6.7080    -1.5420     1.2730 h1         1 8Q9       0.041950
     45 H10         -4.5800    -0.8510     0.0410 h1         1 8Q9       0.035200
     46 H11         -4.7020    -0.3050    -1.6320 h1         1 8Q9       0.035200
     47 H12         -5.8710     1.7870    -0.8420 h1         1 8Q9       0.062200
     48 H13         -5.5830     1.2800     0.8350 h1         1 8Q9       0.062200
     49 H14         -3.6720     2.5010    -0.9670 hn         1 8Q9       0.317500
     50 H15         -1.3040     2.1480    -0.7530 h1         1 8Q9       0.059700
     51 H16         -1.6650     3.3100     0.5430 h1         1 8Q9       0.059700
     52 H17          0.3840     4.0460    -0.1230 ha         1 8Q9       0.141000
     53 H18          6.3250     3.1590     1.5090 hc         1 8Q9       0.062700
     54 H19          6.3440     2.2870    -0.0360 hc         1 8Q9       0.062700
     55 H20          6.8610     3.9820     0.0330 hc         1 8Q9       0.062700
     56 H21          4.1360     1.1560     1.5250 ha         1 8Q9       0.148000
     57 H22          0.7510     0.0530     2.3250 hn         1 8Q9       0.508000
     58 H23          1.9410    -0.1350    -1.4020 ha         1 8Q9       0.160000
     59 H24         -2.0320    -0.7180    -2.9570 ha         1 8Q9       0.123000
     60 H25         -2.6740    -1.9320    -0.9180 ha         1 8Q9       0.124000
     61 H26         -3.1500    -2.0620     1.4360 h1         1 8Q9       0.055367
     62 H27         -2.6900    -3.6280     0.7140 h1         1 8Q9       0.055367
     63 H28         -2.4660    -3.3460     2.4520 h1         1 8Q9       0.055367
@<TRIPOS>BOND
     1     1     2 1   
     2     1     6 1   
     3     1    37 1   
     4     1    38 1   
     5     2     3 1   
     6     2    39 1   
     7     2    40 1   
     8     3     4 1   
     9     4     5 1   
    10     4    41 1   
    11     4    42 1   
    12     5     6 1   
    13     5    43 1   
    14     5    44 1   
    15     6     7 1   
    16     7     8 1   
    17     7    45 1   
    18     7    46 1   
    19     8     9 1   
    20     8    47 1   
    21     8    48 1   
    22     9    10 1   
    23     9    49 1   
    24    10    11 2   
    25    10    12 1   
    26    12    13 1   
    27    12    50 1   
    28    12    51 1   
    29    13    14 1   
    30    14    15 ar  
    31    14    23 ar  
    32    15    16 ar  
    33    15    52 1   
    34    16    17 1   
    35    16    21 ar  
    36    17    18 1   
    37    18    19 2   
    38    19    20 1   
    39    19    21 1   
    40    20    53 1   
    41    20    54 1   
    42    20    55 1   
    43    21    22 ar  
    44    22    23 ar  
    45    22    56 1   
    46    23    24 1   
    47    24    25 1   
    48    24    57 1   
    49    25    26 2   
    50    25    27 2   
    51    25    28 1   
    52    28    29 ar  
    53    28    34 ar  
    54    29    30 ar  
    55    29    58 1   
    56    30    31 1   
    57    30    32 ar  
    58    32    33 ar  
    59    32    59 1   
    60    33    34 ar  
    61    33    60 1   
    62    34    35 1   
    63    35    36 1   
    64    36    61 1   
    65    36    62 1   
    66    36    63 1   
@<TRIPOS>SUBSTRUCTURE
     1 8Q9         1 TEMP              0 ****  ****    0 ROOT
