@<TRIPOS>MOLECULE
8Q9
   63    66     1     0     0
SMALL
abcg2


@<TRIPOS>ATOM
      1 CAX         -7.4380    -0.9190    -2.2800 c6         1 8Q9       0.125300
      2 CAY         -8.7490    -1.5930    -1.9250 c6         1 8Q9       0.153100
      3 OAZ         -8.5380    -2.8160    -1.2540 os         1 8Q9      -0.446000
      4 CBA         -7.7710    -2.6190    -0.0870 c6         1 8Q9       0.153100
      5 CBB         -6.4380    -1.9660    -0.3990 c6         1 8Q9       0.125300
      6 NAW         -6.6510    -0.6990    -1.0780 n3         1 8Q9      -0.715600
      7 CAV         -5.4130    -0.0070    -1.3590 c3         1 8Q9       0.151800
      8 CAU         -4.8440     0.6530    -0.1090 c3         1 8Q9       0.101000
      9 NAT         -3.5490     1.2290    -0.3970 ns         1 8Q9      -0.507900
     10 CAR         -2.6090     1.4170     0.5360 c          1 8Q9       0.607100
     11 OAS         -2.7310     1.1090     1.7080 o          1 8Q9      -0.584100
     12 CAQ         -1.3550     2.1080     0.0290 c3         1 8Q9       0.075600
     13 OAL         -0.2760     1.5920     0.7700 os         1 8Q9      -0.320100
     14 CAB          0.9350     2.1360     0.6190 ca         1 8Q9       0.169100
     15 CAC          1.1920     3.2570    -0.1550 ca         1 8Q9      -0.219000
     16 CAD          2.5120     3.6850    -0.1840 ca         1 8Q9       0.126100
     17 OAG          2.9980     4.7310    -0.8580 os         1 8Q9      -0.116100
     18 NAH          4.3580     4.8160    -0.6220 nc         1 8Q9      -0.297700
     19 CAI          4.6880     3.8490     0.1730 cd         1 8Q9       0.407900
     20 CAJ          6.0860     3.6510     0.6290 c3         1 8Q9      -0.119400
     21 CAE          3.5380     3.0650     0.5060 ca         1 8Q9      -0.283900
     22 CAF          3.2710     1.9390     1.2810 ca         1 8Q9       0.051000
     23 CAA          1.9770     1.4740     1.3290 ca         1 8Q9       0.178000
     24 NAK          1.7050     0.3000     2.0750 nu         1 8Q9      -0.870100
     25 SAM          1.8930    -1.1670     1.3140 sy         1 8Q9       1.162600
     26 OAN          3.0330    -1.0240     0.4270 o          1 8Q9      -0.530000
     27 OAO          1.9170    -2.1790     2.3500 o          1 8Q9      -0.530000
     28 CAP          0.4560    -1.3930     0.2990 ca         1 8Q9      -0.340500
     29 CBG          0.5970    -1.2820    -1.0750 ca         1 8Q9       0.052000
     30 CBF         -0.5190    -1.4330    -1.8810 ca         1 8Q9      -0.096900
     31 BRBJ        -0.3490    -1.2670    -3.7510 br         1 8Q9      -0.090100
     32 CBE         -1.7560    -1.7100    -1.3210 ca         1 8Q9      -0.002000
     33 CBD         -1.8910    -1.8170     0.0530 ca         1 8Q9      -0.223000
     34 CBC         -0.7930    -1.6410     0.8890 ca         1 8Q9       0.263100
     35 OBH         -0.8400    -1.6790     2.2170 os         1 8Q9      -0.333100
     36 CBI         -2.0670    -1.9890     2.8620 c3         1 8Q9       0.150900
     37 H1          -6.8950    -1.5350    -3.0180 h1         1 8Q9       0.041950
     38 H2          -7.6520     0.0420    -2.7540 h1         1 8Q9       0.041950
     39 H3          -9.3470    -0.9130    -1.3020 h1         1 8Q9       0.053950
     40 H4          -9.3170    -1.8100    -2.8310 h1         1 8Q9       0.053950
     41 H5          -8.3190    -1.9940     0.6330 h1         1 8Q9       0.053950
     42 H6          -7.6100    -3.5980     0.3690 h1         1 8Q9       0.053950
     43 H7          -5.9100    -1.8090     0.5430 h1         1 8Q9       0.041950
     44 H8          -5.8220    -2.6500    -1.0090 h1         1 8Q9       0.041950
     45 H10         -4.6580    -0.6780    -1.8050 h1         1 8Q9       0.035200
     46 H11         -5.6120     0.7670    -2.1040 h1         1 8Q9       0.035200
     47 H12         -5.5410     1.4140     0.2520 h1         1 8Q9       0.062200
     48 H13         -4.7200    -0.0730     0.6950 h1         1 8Q9       0.062200
     49 H14         -3.3700     1.5450    -1.3380 hn         1 8Q9       0.317500
     50 H15         -1.2040     1.9520    -1.0440 h1         1 8Q9       0.059700
     51 H16         -1.4760     3.1850     0.1960 h1         1 8Q9       0.059700
     52 H17          0.4260     3.7760    -0.7150 ha         1 8Q9       0.141000
     53 H18          6.1420     3.7030     1.7170 hc         1 8Q9       0.062700
     54 H19          6.4470     2.6660     0.3310 hc         1 8Q9       0.062700
     55 H20          6.7480     4.4050     0.2110 hc         1 8Q9       0.062700
     56 H21          4.0470     1.4320     1.8380 ha         1 8Q9       0.148000
     57 H22          0.8980     0.3240     2.6910 hn         1 8Q9       0.508000
     58 H23          1.5680    -1.0800    -1.5040 ha         1 8Q9       0.160000
     59 H24         -2.6280    -1.8440    -1.9460 ha         1 8Q9       0.123000
     60 H25         -2.8680    -2.0380     0.4610 ha         1 8Q9       0.124000
     61 H26         -2.8240    -1.2310     2.6610 h1         1 8Q9       0.055367
     62 H27         -2.4370    -2.9710     2.5620 h1         1 8Q9       0.055367
     63 H28         -1.8510    -2.0020     3.9270 h1         1 8Q9       0.055367
@<TRIPOS>BOND
     1     1     2 1   
     2     1     6 1   
     3     1    37 1   
     4     1    38 1   
     5     2     3 1   
     6     2    39 1   
     7     2    40 1   
     8     3     4 1   
     9     4     5 1   
    10     4    41 1   
    11     4    42 1   
    12     5     6 1   
    13     5    43 1   
    14     5    44 1   
    15     6     7 1   
    16     7     8 1   
    17     7    45 1   
    18     7    46 1   
    19     8     9 1   
    20     8    47 1   
    21     8    48 1   
    22     9    10 1   
    23     9    49 1   
    24    10    11 2   
    25    10    12 1   
    26    12    13 1   
    27    12    50 1   
    28    12    51 1   
    29    13    14 1   
    30    14    15 ar  
    31    14    23 ar  
    32    15    16 ar  
    33    15    52 1   
    34    16    17 1   
    35    16    21 ar  
    36    17    18 1   
    37    18    19 2   
    38    19    20 1   
    39    19    21 1   
    40    20    53 1   
    41    20    54 1   
    42    20    55 1   
    43    21    22 ar  
    44    22    23 ar  
    45    22    56 1   
    46    23    24 1   
    47    24    25 1   
    48    24    57 1   
    49    25    26 2   
    50    25    27 2   
    51    25    28 1   
    52    28    29 ar  
    53    28    34 ar  
    54    29    30 ar  
    55    29    58 1   
    56    30    31 1   
    57    30    32 ar  
    58    32    33 ar  
    59    32    59 1   
    60    33    34 ar  
    61    33    60 1   
    62    34    35 1   
    63    35    36 1   
    64    36    61 1   
    65    36    62 1   
    66    36    63 1   
@<TRIPOS>SUBSTRUCTURE
     1 8Q9         1 TEMP              0 ****  ****    0 ROOT
