@<TRIPOS>MOLECULE
8QA
   36    35     1     0     0
SMALL
bcc


@<TRIPOS>ATOM
      1 N01          8.1230   -13.1050    51.5320 n8         1 8QA      -0.891800
      2 C02          7.6250   -12.2270    52.5880 c3         1 8QA       0.013500
      3 C03          6.2350   -12.6200    53.1430 c          1 8QA       0.900600
      4 O04          5.4010   -13.0250    52.3050 o          1 8QA      -0.840300
      5 C20          7.5900   -10.7960    52.0480 c3         1 8QA      -0.045400
      6 C21          7.2260    -9.7280    53.0700 c3         1 8QA      -0.068400
      7 C22          7.3620    -8.3220    52.5000 c3         1 8QA      -0.095400
      8 C23          7.0030    -7.2630    53.5290 c3         1 8QA       0.082000
      9 N24          7.1510    -5.9330    52.9750 ns         1 8QA      -0.447900
     10 C25          6.9630    -4.8090    53.6370 cs         1 8QA       0.475400
     11 S26          6.5230    -4.7710    55.2480 s          1 8QA      -0.660400
     12 C27          7.1480    -3.5400    52.8490 c3         1 8QA      -0.131400
     13 C28          5.8460    -2.7520    52.6900 c3         1 8QA      -0.044400
     14 C29          4.7710    -3.5210    51.9390 c3         1 8QA      -0.215400
     15 C30          3.4610    -2.7490    51.6760 c          1 8QA       0.931600
     16 O31          3.2670    -1.7040    52.3290 o          1 8QA      -0.849300
     17 O32          2.6870    -3.2550    50.8370 o          1 8QA      -0.849300
     18 H1           8.2520   -14.0350    51.9150 hn         1 8QA       0.323300
     19 H2           8.3480   -12.2570    53.4100 h1         1 8QA       0.035700
     20 H14          8.5770   -10.5690    51.6310 hc         1 8QA       0.021700
     21 H15          6.8880   -10.7520    51.2070 hc         1 8QA       0.021700
     22 H16          6.2040    -9.8740    53.4290 hc         1 8QA       0.056700
     23 H17          7.8750    -9.8240    53.9470 hc         1 8QA       0.056700
     24 H18          8.3880    -8.1620    52.1550 hc         1 8QA       0.032700
     25 H19          6.7140    -8.2170    51.6230 hc         1 8QA       0.032700
     26 H20          5.9740    -7.3960    53.8750 h1         1 8QA       0.072200
     27 H21          7.6420    -7.3520    54.4110 h1         1 8QA       0.072200
     28 H22          7.4060    -5.8670    51.9990 hn         1 8QA       0.306500
     29 H23          7.5630    -3.7640    51.8620 hc         1 8QA       0.035700
     30 H24          7.8840    -2.9260    53.3720 hc         1 8QA       0.035700
     31 H25          6.0830    -1.8270    52.1610 hc         1 8QA       0.053700
     32 H26          5.4850    -2.4610    53.6770 hc         1 8QA       0.053700
     33 H27          4.5060    -4.4270    52.4990 hc         1 8QA       0.020200
     34 H28          5.1680    -3.8820    50.9840 hc         1 8QA       0.020200
     35 H3           7.3750   -13.2140    50.8540 hn         1 8QA       0.323300
     36 OXT          6.0510   -12.4770    54.3690 o          1 8QA      -0.840300
@<TRIPOS>BOND
     1     1     2 1   
     2     1    18 1   
     3     1    35 1   
     4     2     3 1   
     5     2     5 1   
     6     2    19 1   
     7     3     4 1   
     8     3    36 1   
     9     5     6 1   
    10     5    20 1   
    11     5    21 1   
    12     6     7 1   
    13     6    22 1   
    14     6    23 1   
    15     7     8 1   
    16     7    24 1   
    17     7    25 1   
    18     8     9 1   
    19     8    26 1   
    20     8    27 1   
    21     9    10 1   
    22     9    28 1   
    23    10    11 2   
    24    10    12 1   
    25    12    13 1   
    26    12    29 1   
    27    12    30 1   
    28    13    14 1   
    29    13    31 1   
    30    13    32 1   
    31    14    15 1   
    32    14    33 1   
    33    14    34 1   
    34    15    16 1   
    35    15    17 1   
@<TRIPOS>SUBSTRUCTURE
     1 8QA         1 TEMP              0 ****  ****    0 ROOT
