@<TRIPOS>MOLECULE
8QA
   36    35     1     0     0
SMALL
No Charge or Current Charge


@<TRIPOS>ATOM
      1 N01          8.0180   -13.2440    51.4700 n8         1 8QA      -1.002200
      2 C02          7.5960   -12.2900    52.5600 c3         1 8QA       0.013500
      3 C03          6.2520   -12.6580    53.3190 c          1 8QA       0.690000
      4 O04          5.2400   -12.8460    52.6550 o          1 8QA      -0.735000
      5 C20          7.5630   -10.8390    52.0050 c3         1 8QA      -0.045400
      6 C21          7.3250    -9.7550    53.0850 c3         1 8QA      -0.068400
      7 C22          7.3610    -8.3190    52.5160 c3         1 8QA      -0.095400
      8 C23          7.1270    -7.2410    53.5930 c3         1 8QA       0.082000
      9 N24          7.1730    -5.8940    53.0250 ns         1 8QA      -0.380900
     10 C25          6.9630    -4.7260    53.7080 cs         1 8QA       0.408400
     11 S26          6.6750    -4.6610    55.3590 s          1 8QA      -0.660400
     12 C27          7.1000    -3.4750    52.8480 c3         1 8QA      -0.131400
     13 C28          5.7620    -2.7300    52.6220 c3         1 8QA      -0.044400
     14 C29          4.7190    -3.5510    51.8220 c3         1 8QA      -0.215400
     15 C30          3.4580    -2.7040    51.5730 c          1 8QA       0.721000
     16 O31          2.5730    -2.7280    52.4140 o          1 8QA      -0.744000
     17 O32          3.4220    -2.0050    50.5720 o          1 8QA      -0.744000
     18 H1           8.0990   -14.1890    51.8670 hn         1 8QA       0.378500
     19 H2           8.3930   -12.3210    53.3160 h1         1 8QA       0.035700
     20 H14          8.5150   -10.6260    51.5030 hc         1 8QA       0.021700
     21 H15          6.7780   -10.7590    51.2420 hc         1 8QA       0.021700
     22 H16          6.3530    -9.9220    53.5650 hc         1 8QA       0.056700
     23 H17          8.0900    -9.8530    53.8660 hc         1 8QA       0.056700
     24 H18          8.3340    -8.1440    52.0390 hc         1 8QA       0.032700
     25 H19          6.5960    -8.2200    51.7360 hc         1 8QA       0.032700
     26 H20          6.1460    -7.3950    54.0620 h1         1 8QA       0.072200
     27 H21          7.8980    -7.3230    54.3710 h1         1 8QA       0.072200
     28 H22          7.3600    -5.8100    52.0320 hn         1 8QA       0.306500
     29 H23          7.5460    -3.7150    51.8760 hc         1 8QA       0.035700
     30 H24          7.8000    -2.7890    53.3390 hc         1 8QA       0.035700
     31 H25          5.9710    -1.7970    52.0830 hc         1 8QA       0.053700
     32 H26          5.3360    -2.4420    53.5910 hc         1 8QA       0.053700
     33 H27          4.4760    -4.4230    52.4410 hc         1 8QA       0.020200
     34 H28          5.2010    -3.8060    50.8700 hc         1 8QA       0.020200
     35 H3           7.2380   -13.3370    50.8070 hn         1 8QA       0.378500
     36 OXT          6.3050   -12.8640    54.5240 o          1 8QA      -0.735000
@<TRIPOS>BOND
     1     1     2 1   
     2     1    18 1   
     3     1    35 1   
     4     2     3 1   
     5     2     5 1   
     6     2    19 1   
     7     3     4 1   
     8     3    36 1   
     9     5     6 1   
    10     5    20 1   
    11     5    21 1   
    12     6     7 1   
    13     6    22 1   
    14     6    23 1   
    15     7     8 1   
    16     7    24 1   
    17     7    25 1   
    18     8     9 1   
    19     8    26 1   
    20     8    27 1   
    21     9    10 1   
    22     9    28 1   
    23    10    11 2   
    24    10    12 1   
    25    12    13 1   
    26    12    29 1   
    27    12    30 1   
    28    13    14 1   
    29    13    31 1   
    30    13    32 1   
    31    14    15 1   
    32    14    33 1   
    33    14    34 1   
    34    15    16 1   
    35    15    17 1   
@<TRIPOS>SUBSTRUCTURE
     1 8QA         1 TEMP              0 ****  ****    0 ROOT
