@<TRIPOS>MOLECULE
8QB
   42    45     1     0     0
SMALL
abcg2


@<TRIPOS>ATOM
      1 C1           1.1670     2.6050     0.5370 ca         1 8QB       0.147900
      2 C2           1.7810     0.4420     0.3600 ca         1 8QB       0.387900
      3 C3          -0.4490     0.9100     0.2540 ca         1 8QB       0.270500
      4 C7          -2.1630    -0.9110    -0.0730 cc         1 8QB      -0.101000
      5 C8          -4.3240    -2.1450    -0.4290 c6         1 8QB       0.055600
      6 C9          -5.6610    -1.9520     0.2540 c6         1 8QB       0.095000
      7 C10         -5.4900     0.4780    -0.0860 c          1 8QB       0.605600
      8 C11          4.1600    -0.2350     0.3060 c6         1 8QB       0.247500
      9 C12          4.6430     0.1280    -1.0980 c6         1 8QB      -0.131900
     10 C13          6.1550     0.2820    -1.1110 c6         1 8QB       0.157100
     11 C14          6.4330    -1.1980     0.6790 c6         1 8QB       0.157100
     12 C15          4.9380    -1.4440     0.8130 c6         1 8QB      -0.131900
     13 O           -5.9790     1.5990    -0.1470 o          1 8QB      -0.545000
     14 C6          -4.0420     0.2670    -0.0300 cc         1 8QB      -0.270600
     15 C5          -3.0140     1.1630     0.1300 cd         1 8QB      -0.060000
     16 N3          -6.2210    -0.6570    -0.0890 ns         1 8QB      -0.513900
     17 N2          -3.5000    -0.9870    -0.1460 na         1 8QB       0.040000
     18 C4          -1.8110     0.4200     0.1080 cd         1 8QB      -0.261500
     19 C           -0.1660     2.2700     0.4130 ca         1 8QB      -0.279000
     20 N1           0.5230     0.0070     0.2280 nb         1 8QB      -0.276000
     21 N            2.1510     1.7180     0.5120 nb         1 8QB      -0.252000
     22 N4           2.7410    -0.5060     0.3600 nu         1 8QB      -0.920100
     23 O1           6.8050    -0.8800    -0.6430 os         1 8QB      -0.451000
     24 H1           1.4590     3.6420     0.6600 h4         1 8QB       0.017100
     25 H2          -1.5400    -1.7870    -0.1490 h4         1 8QB       0.164000
     26 H3          -3.8330    -3.0390    -0.0510 h1         1 8QB       0.069700
     27 H4          -4.4500    -2.2490    -1.5090 h1         1 8QB       0.069700
     28 H5          -6.3490    -2.7260    -0.0800 h1         1 8QB       0.055200
     29 H6          -5.5430    -2.0560     1.3370 h1         1 8QB       0.055200
     30 H7           4.3630     0.6080     0.9720 h1         1 8QB       0.080700
     31 H8           4.3450    -0.6570    -1.8000 hc         1 8QB       0.056450
     32 H9           4.1780     1.0590    -1.4300 hc         1 8QB       0.056450
     33 H10          6.5150     0.4630    -2.1250 h1         1 8QB       0.046700
     34 H11          6.4440     1.1520    -0.5020 h1         1 8QB       0.046700
     35 H12          6.7300    -0.3890     1.3650 h1         1 8QB       0.046700
     36 H13          6.9950    -2.0880     0.9660 h1         1 8QB       0.046700
     37 H14          4.6990    -1.6430     1.8610 hc         1 8QB       0.056450
     38 H15          4.6580    -2.3360     0.2410 hc         1 8QB       0.056450
     39 H16         -3.1270     2.2280     0.2610 ha         1 8QB       0.151000
     40 H17         -7.2240    -0.5550    -0.0500 hn         1 8QB       0.323500
     41 H18         -0.9360     3.0270     0.4330 ha         1 8QB       0.136000
     42 H19          2.4340    -1.4340     0.1110 hn         1 8QB       0.494000
@<TRIPOS>BOND
     1     1    19 ar  
     2     1    21 ar  
     3     1    24 1   
     4     2    20 ar  
     5     2    21 ar  
     6     2    22 1   
     7     3    18 1   
     8     3    19 ar  
     9     3    20 ar  
    10     4    17 1   
    11     4    18 2   
    12     4    25 1   
    13     5     6 1   
    14     5    17 1   
    15     5    26 1   
    16     5    27 1   
    17     6    16 1   
    18     6    28 1   
    19     6    29 1   
    20     7    13 2   
    21     7    14 1   
    22     7    16 1   
    23     8     9 1   
    24     8    12 1   
    25     8    22 1   
    26     8    30 1   
    27     9    10 1   
    28     9    31 1   
    29     9    32 1   
    30    10    23 1   
    31    10    33 1   
    32    10    34 1   
    33    11    12 1   
    34    11    23 1   
    35    11    35 1   
    36    11    36 1   
    37    12    37 1   
    38    12    38 1   
    39    14    15 2   
    40    14    17 1   
    41    15    18 1   
    42    15    39 1   
    43    16    40 1   
    44    19    41 1   
    45    22    42 1   
@<TRIPOS>SUBSTRUCTURE
     1 8QB         1 TEMP              0 ****  ****    0 ROOT
