@<TRIPOS>MOLECULE
8QB
   42    45     1     0     0
SMALL
No Charge or Current Charge


@<TRIPOS>ATOM
      1 C1           1.1310     2.6710     0.5220 ca         1 8QB       0.147900
      2 C2           1.7990     0.4870     0.3810 ca         1 8QB       0.387900
      3 C3          -0.4590     0.8800     0.2880 ca         1 8QB       0.270500
      4 C7          -2.1560    -0.9900     0.0550 cc         1 8QB      -0.101000
      5 C8          -4.3750    -2.2250    -0.3030 c6         1 8QB       0.055600
      6 C9          -5.8550    -1.9570     0.1060 c6         1 8QB       0.095000
      7 C10         -5.5120     0.5630    -0.0850 c          1 8QB       0.605600
      8 C11          4.2570    -0.1980     0.3320 c6         1 8QB       0.247500
      9 C12          4.6940     0.1950    -1.1000 c6         1 8QB      -0.131900
     10 C13          6.2320     0.3300    -1.1680 c6         1 8QB       0.157100
     11 C14          6.5420    -1.2470     0.6440 c6         1 8QB       0.157100
     12 C15          5.0190    -1.4600     0.7970 c6         1 8QB      -0.131900
     13 O           -5.9700     1.6930    -0.1300 o          1 8QB      -0.545000
     14 C6          -4.0850     0.2290    -0.0010 cc         1 8QB      -0.270600
     15 C5          -3.0330     1.0960     0.1180 cd         1 8QB      -0.060000
     16 N3          -6.3170    -0.5560    -0.0910 ns         1 8QB      -0.513900
     17 N2          -3.5440    -1.0390    -0.0500 na         1 8QB       0.040000
     18 C4          -1.8290     0.3450     0.1630 cd         1 8QB      -0.261500
     19 C           -0.2050     2.2590     0.4110 ca         1 8QB      -0.279000
     20 N1           0.5560    -0.0080     0.2730 nb         1 8QB      -0.276000
     21 N            2.1420     1.7840     0.5080 nb         1 8QB      -0.252000
     22 N4           2.8100    -0.4640     0.3680 nu         1 8QB      -0.920100
     23 O1           6.8510    -0.8960    -0.7220 os         1 8QB      -0.451000
     24 H1           1.3970     3.7220     0.6220 h4         1 8QB       0.017100
     25 H2          -1.5360    -1.8790     0.0310 h4         1 8QB       0.164000
     26 H3          -3.9770    -3.0900     0.2440 h1         1 8QB       0.069700
     27 H4          -4.3300    -2.4490    -1.3770 h1         1 8QB       0.069700
     28 H5          -6.5210    -2.6390    -0.4430 h1         1 8QB       0.055200
     29 H6          -5.9660    -2.1860     1.1760 h1         1 8QB       0.055200
     30 H7           4.5150     0.6230     1.0230 h1         1 8QB       0.080700
     31 H8           4.3620    -0.5640    -1.8220 hc         1 8QB       0.056450
     32 H9           4.2270     1.1420    -1.3980 hc         1 8QB       0.056450
     33 H10          6.5470     0.5340    -2.2020 h1         1 8QB       0.046700
     34 H11          6.5730     1.1620    -0.5350 h1         1 8QB       0.046700
     35 H12          6.8880    -0.4460     1.3140 h1         1 8QB       0.046700
     36 H13          7.0790    -2.1690     0.9080 h1         1 8QB       0.046700
     37 H14          4.7790    -1.6840     1.8450 hc         1 8QB       0.056450
     38 H15          4.7150    -2.3330     0.2040 hc         1 8QB       0.056450
     39 H16         -3.1220     2.1770     0.1740 ha         1 8QB       0.151000
     40 H17         -7.3130    -0.3800    -0.1560 hn         1 8QB       0.323500
     41 H18         -1.0060     2.9900     0.4250 ha         1 8QB       0.136000
     42 H19          2.4920    -1.4270     0.2640 hn         1 8QB       0.494000
@<TRIPOS>BOND
     1     1    19 ar  
     2     1    21 ar  
     3     1    24 1   
     4     2    20 ar  
     5     2    21 ar  
     6     2    22 1   
     7     3    18 1   
     8     3    19 ar  
     9     3    20 ar  
    10     4    17 1   
    11     4    18 2   
    12     4    25 1   
    13     5     6 1   
    14     5    17 1   
    15     5    26 1   
    16     5    27 1   
    17     6    16 1   
    18     6    28 1   
    19     6    29 1   
    20     7    13 2   
    21     7    14 1   
    22     7    16 1   
    23     8     9 1   
    24     8    12 1   
    25     8    22 1   
    26     8    30 1   
    27     9    10 1   
    28     9    31 1   
    29     9    32 1   
    30    10    23 1   
    31    10    33 1   
    32    10    34 1   
    33    11    12 1   
    34    11    23 1   
    35    11    35 1   
    36    11    36 1   
    37    12    37 1   
    38    12    38 1   
    39    14    15 2   
    40    14    17 1   
    41    15    18 1   
    42    15    39 1   
    43    16    40 1   
    44    19    41 1   
    45    22    42 1   
@<TRIPOS>SUBSTRUCTURE
     1 8QB         1 TEMP              0 ****  ****    0 ROOT
