@<TRIPOS>MOLECULE
8QC
   41    43     1     0     0
SMALL
bcc


@<TRIPOS>ATOM
      1 CAW          1.1850    -2.8180    -3.1490 c3         1 8QC       0.130700
      2 OAU          0.5460    -2.6710    -1.8870 os         1 8QC      -0.330900
      3 CAP          1.1920    -2.0480    -0.9020 ca         1 8QC       0.233100
      4 CAQ          2.4670    -1.5010    -1.0110 ca         1 8QC      -0.238000
      5 CAR          3.0380    -0.8330     0.0600 ca         1 8QC      -0.013000
      6 CAS          2.3420    -0.6970     1.2510 ca         1 8QC      -0.081900
      7 BRAV         3.1230     0.2230     2.6980 br         1 8QC      -0.077100
      8 CAT          1.0720    -1.2320     1.3850 ca         1 8QC       0.040000
      9 CAO          0.5080    -1.9070     0.3140 ca         1 8QC      -0.337500
     10 SAL         -1.1170    -2.5940     0.5020 sy         1 8QC       1.297200
     11 OAM         -1.1020    -3.9900     0.1120 o          1 8QC      -0.602300
     12 OAN         -1.5790    -2.2150     1.8260 o          1 8QC      -0.602300
     13 NAK         -2.0990    -1.8140    -0.5850 nu         1 8QC      -0.690500
     14 CAB         -2.2840    -0.4110    -0.4420 ca         1 8QC      -0.028400
     15 CAC         -1.4020     0.4760    -1.0130 ca         1 8QC      -0.011000
     16 CAD         -1.6340     1.8410    -0.8610 ca         1 8QC      -0.319900
     17 CAG         -1.0040     3.0570    -1.2620 cc         1 8QC       0.405900
     18 CAX          0.2300     3.2150    -2.0720 c3         1 8QC      -0.115400
     19 NAH         -1.6630     4.0790    -0.8160 nd         1 8QC      -0.403200
     20 OAI         -2.7560     3.6020    -0.1080 os         1 8QC      -0.023600
     21 CAE         -2.7370     2.2630    -0.1350 ca         1 8QC       0.151100
     22 CAF         -3.6570     1.4110     0.4470 ca         1 8QC      -0.258000
     23 CAA         -3.4380     0.0350     0.2850 ca         1 8QC       0.288600
     24 NAJ         -4.3000    -0.8740     0.7740 nu         1 8QC      -0.747600
     25 CAY         -5.4630    -0.5410     1.5480 c3         1 8QC       0.213100
     26 H1           0.4740    -3.3320    -3.7880 h1         1 8QC       0.052367
     27 H2           1.4270    -1.8490    -3.5900 h1         1 8QC       0.052367
     28 H3           2.0930    -3.4180    -3.0680 h1         1 8QC       0.052367
     29 H4           3.0350    -1.5820    -1.9280 ha         1 8QC       0.143000
     30 H5           4.0300    -0.4180    -0.0550 ha         1 8QC       0.150000
     31 H6           0.5190    -1.1280     2.3080 ha         1 8QC       0.182000
     32 H7          -1.9870    -2.1590    -1.5330 hn         1 8QC       0.441800
     33 H8          -0.5550     0.1130    -1.5810 ha         1 8QC       0.135000
     34 H9           0.0840     2.8010    -3.0700 hc         1 8QC       0.056367
     35 H10          0.5080     4.2620    -2.1700 hc         1 8QC       0.056367
     36 H11          1.0610     2.6780    -1.6130 hc         1 8QC       0.056367
     37 H12         -4.5130     1.7920     0.9850 ha         1 8QC       0.160000
     38 H13         -4.0730    -1.8450     0.6480 hn         1 8QC       0.455800
     39 H14         -5.2070    -0.0260     2.4790 h1         1 8QC       0.042367
     40 H15         -6.1570     0.0950     0.9920 h1         1 8QC       0.042367
     41 H16         -5.9820    -1.4610     1.8040 h1         1 8QC       0.042367
@<TRIPOS>BOND
     1     1     2 1   
     2     1    26 1   
     3     1    27 1   
     4     1    28 1   
     5     2     3 1   
     6     3     4 ar  
     7     3     9 ar  
     8     4     5 ar  
     9     4    29 1   
    10     5     6 ar  
    11     5    30 1   
    12     6     7 1   
    13     6     8 ar  
    14     8     9 ar  
    15     8    31 1   
    16     9    10 1   
    17    10    11 2   
    18    10    12 2   
    19    10    13 1   
    20    13    14 1   
    21    13    32 1   
    22    14    15 ar  
    23    14    23 ar  
    24    15    16 ar  
    25    15    33 1   
    26    16    17 1   
    27    16    21 ar  
    28    17    18 1   
    29    17    19 2   
    30    18    34 1   
    31    18    35 1   
    32    18    36 1   
    33    19    20 1   
    34    20    21 1   
    35    21    22 ar  
    36    22    23 ar  
    37    22    37 1   
    38    23    24 1   
    39    24    25 1   
    40    24    38 1   
    41    25    39 1   
    42    25    40 1   
    43    25    41 1   
@<TRIPOS>SUBSTRUCTURE
     1 8QC         1 TEMP              0 ****  ****    0 ROOT
