@<TRIPOS>MOLECULE
8QC
   41    43     1     0     0
SMALL
No Charge or Current Charge


@<TRIPOS>ATOM
      1 CAW          1.7790    -1.4540    -2.6110 c3         1 8QC       0.153900
      2 OAU          0.7880    -1.9660    -1.7030 os         1 8QC      -0.354100
      3 CAP          0.8780    -1.8050    -0.3340 ca         1 8QC       0.233100
      4 CAQ          1.9830    -1.1550     0.2610 ca         1 8QC      -0.220000
      5 CAR          2.0380    -0.9740     1.6530 ca         1 8QC       0.005000
      6 CAS          0.9880    -1.4380     2.4590 ca         1 8QC      -0.081900
      7 BrAV         1.0520    -1.1770     4.3530 br         1 8QC      -0.077100
      8 CAT         -0.1120    -2.0890     1.8810 ca         1 8QC       0.058000
      9 CAO         -0.1660    -2.2770     0.4850 ca         1 8QC      -0.337500
     10 SAL         -1.6060    -3.0620    -0.2230 sy         1 8QC       1.155600
     11 OAM         -1.2080    -4.0830    -1.1920 o          1 8QC      -0.531500
     12 OAN         -2.6190    -3.3170     0.8040 o          1 8QC      -0.531500
     13 NAK         -2.2990    -1.8900    -1.2040 nu         1 8QC      -0.884100
     14 CAB         -2.3310    -0.4890    -0.9780 ca         1 8QC       0.110000
     15 CAC         -1.7820     0.3390    -1.9860 ca         1 8QC       0.007000
     16 CAD         -1.7710     1.7230    -1.7770 ca         1 8QC      -0.319900
     17 CAG         -1.2880     2.8040    -2.5740 cc         1 8QC       0.405900
     18 CAX         -0.6260     2.6760    -3.9140 c3         1 8QC      -0.115400
     19 NAH         -1.4960     3.9730    -1.9630 nd         1 8QC      -0.304700
     20 OAI         -2.1500     3.6560    -0.6950 os         1 8QC      -0.122100
     21 CAE         -2.2750     2.2930    -0.6580 ca         1 8QC       0.151100
     22 CAF         -2.8410     1.5320     0.3620 ca         1 8QC      -0.240000
     23 CAA         -2.8700     0.1300     0.2110 ca         1 8QC       0.427000
     24 NAJ         -3.4590    -0.6450     1.2180 nu         1 8QC      -0.941200
     25 CAY         -3.4750    -0.3380     2.6580 c3         1 8QC       0.213100
     26 H1           1.5010    -1.6860    -3.6470 h1         1 8QC       0.052367
     27 H2           1.8660    -0.3640    -2.5200 h1         1 8QC       0.052367
     28 H3           2.7600    -1.9060    -2.4150 h1         1 8QC       0.052367
     29 H4           2.8060    -0.7780    -0.3370 ha         1 8QC       0.125000
     30 H5           2.8890    -0.4690     2.1040 ha         1 8QC       0.132000
     31 H6          -0.9180    -2.4380     2.5250 ha         1 8QC       0.164000
     32 H7          -1.9500    -2.1710    -2.1120 hn         1 8QC       0.497000
     33 H8          -1.3650    -0.0890    -2.8940 ha         1 8QC       0.117000
     34 H9          -1.3080     2.2130    -4.6360 hc         1 8QC       0.056367
     35 H10         -0.3300     3.6560    -4.3060 hc         1 8QC       0.056367
     36 H11          0.2720     2.0530    -3.8410 hc         1 8QC       0.056367
     37 H12         -3.2500     2.0180     1.2400 ha         1 8QC       0.142000
     38 H13         -3.4380    -1.6440     0.9800 hn         1 8QC       0.511000
     39 H14         -2.4520    -0.2020     3.0340 h1         1 8QC       0.042367
     40 H15         -4.0470     0.5780     2.8570 h1         1 8QC       0.042367
     41 H16         -3.9420    -1.1600     3.2160 h1         1 8QC       0.042367
@<TRIPOS>BOND
     1     1     2 1   
     2     1    26 1   
     3     1    27 1   
     4     1    28 1   
     5     2     3 1   
     6     3     4 ar  
     7     3     9 ar  
     8     4     5 ar  
     9     4    29 1   
    10     5     6 ar  
    11     5    30 1   
    12     6     7 1   
    13     6     8 ar  
    14     8     9 ar  
    15     8    31 1   
    16     9    10 1   
    17    10    11 2   
    18    10    12 2   
    19    10    13 1   
    20    13    14 1   
    21    13    32 1   
    22    14    15 ar  
    23    14    23 ar  
    24    15    16 ar  
    25    15    33 1   
    26    16    17 1   
    27    16    21 ar  
    28    17    18 1   
    29    17    19 2   
    30    18    34 1   
    31    18    35 1   
    32    18    36 1   
    33    19    20 1   
    34    20    21 1   
    35    21    22 ar  
    36    22    23 ar  
    37    22    37 1   
    38    23    24 1   
    39    24    25 1   
    40    24    38 1   
    41    25    39 1   
    42    25    40 1   
    43    25    41 1   
@<TRIPOS>SUBSTRUCTURE
     1 8QC         1 TEMP              0 ****  ****    0 ROOT
