@<TRIPOS>MOLECULE
8QD
   59    63     1     0     0
SMALL
bcc


@<TRIPOS>ATOM
      1 C10         -5.0610    -0.2950     1.3030 ca         1 8QD      -0.090000
      2 C15         -1.6080    -0.2890    -0.4720 c5         1 8QD      -0.004800
      3 C17         -1.1290     1.1150    -0.1140 c6         1 8QD      -0.060400
      4 C20          2.7640     0.4410    -0.4310 c6         1 8QD      -0.029000
      5 C21          2.8950     0.4020    -1.9610 c3         1 8QD      -0.082100
      6 C22          3.2760     1.7980     0.0820 c6         1 8QD      -0.064400
      7 C24          5.6170     0.8900     0.4610 c6         1 8QD       0.149100
      8 C26          5.1120    -0.4750     0.0170 c6         1 8QD      -0.063400
      9 C01          3.6140    -0.6540     0.2560 c6         1 8QD      -0.053700
     10 C02          3.1450    -2.0570    -0.1050 c6         1 8QD      -0.069400
     11 C03          1.6860    -2.2590     0.2850 c6         1 8QD      -0.069400
     12 C04          0.7790    -1.1960    -0.3270 c6         1 8QD      -0.042700
     13 C05         -0.6420    -1.2870     0.1970 c5         1 8QD      -0.066700
     14 C06         -1.4220    -2.6010     0.2060 c5         1 8QD      -0.043200
     15 C07         -2.8170    -2.0820     0.4250 c2         1 8QD      -0.160200
     16 C08         -2.9260    -0.7820     0.1210 ce         1 8QD      -0.069400
     17 C09         -4.1470     0.0120     0.2930 ca         1 8QD      -0.142100
     18 C11         -6.2130     0.4580     1.4450 ca         1 8QD      -0.247300
     19 C12         -6.4210     1.5200     0.5780 ca         1 8QD       0.398200
     20 N13         -5.5620     1.8420    -0.3810 nb         1 8QD      -0.669000
     21 C14         -4.4630     1.1090    -0.5130 ca         1 8QD       0.409200
     22 C18          0.3350     1.3080    -0.5310 c6         1 8QD      -0.072400
     23 C19          1.2900     0.2270    -0.0050 c6         1 8QD      -0.048700
     24 C23          4.7700     1.9970    -0.1550 c6         1 8QD      -0.110400
     25 O25          5.5730     0.9230     1.8790 oh         1 8QD      -0.599800
     26 H101        -4.8630    -1.1120     1.9860 ha         1 8QD       0.136000
     27 H171        -1.7330     1.8930    -0.5880 hc         1 8QD       0.044700
     28 H172        -1.2230     1.2590     0.9680 hc         1 8QD       0.044700
     29 H211         2.5110     1.3210    -2.4070 hc         1 8QD       0.031367
     30 H213         3.9300     0.3060    -2.2870 hc         1 8QD       0.031367
     31 H212         2.3440    -0.4250    -2.4080 hc         1 8QD       0.031367
     32 H222         2.7370     2.6170    -0.4010 hc         1 8QD       0.042700
     33 H221         3.0600     1.8790     1.1530 hc         1 8QD       0.042700
     34 H241         6.6550     1.0120     0.1190 h1         1 8QD       0.028700
     35 H262         5.3540    -0.6060    -1.0420 hc         1 8QD       0.047200
     36 H261         5.6640    -1.2580     0.5470 hc         1 8QD       0.047200
     37 H011         3.4490    -0.5320     1.3350 hc         1 8QD       0.061700
     38 H022         3.2800    -2.2370    -1.1770 hc         1 8QD       0.039200
     39 H021         3.7700    -2.7950     0.4070 hc         1 8QD       0.039200
     40 H031         1.3480    -3.2540    -0.0180 hc         1 8QD       0.039200
     41 H032         1.5980    -2.2210     1.3780 hc         1 8QD       0.039200
     42 H041         0.7770    -1.3490    -1.4120 hc         1 8QD       0.052700
     43 H051        -0.5950    -0.9820     1.2540 hc         1 8QD       0.048700
     44 H061        -1.3480    -3.1530    -0.7390 hc         1 8QD       0.053200
     45 H062        -1.1000    -3.2880     0.9910 hc         1 8QD       0.053200
     46 H071        -3.6300    -2.7090     0.7720 ha         1 8QD       0.136000
     47 H111        -6.9330     0.2360     2.2200 ha         1 8QD       0.140000
     48 H121        -7.3090     2.1370     0.6640 h4         1 8QD       0.018100
     49 H141        -3.8000     1.4090    -1.3160 h4         1 8QD       0.021100
     50 H181         0.3960     1.3550    -1.6220 hc         1 8QD       0.039700
     51 H182         0.6600     2.2870    -0.1760 hc         1 8QD       0.039700
     52 H191         1.2760     0.3030     1.0950 hc         1 8QD       0.044700
     53 H231         4.9770     2.0360    -1.2290 hc         1 8QD       0.041200
     54 H232         5.0850     2.9690     0.2410 hc         1 8QD       0.041200
     55 H251         5.8020     1.8140     2.1620 ho         1 8QD       0.399000
     56 C16         -1.6730    -0.4750    -1.9980 c3         1 8QD      -0.080100
     57 H161        -2.4670     0.1320    -2.4340 hc         1 8QD       0.035367
     58 H163        -0.7480    -0.1860    -2.4950 hc         1 8QD       0.035367
     59 H162        -1.8750    -1.5130    -2.2660 hc         1 8QD       0.035367
@<TRIPOS>BOND
     1     1    17 ar  
     2     1    18 ar  
     3     1    26 1   
     4     2     3 1   
     5     2    13 1   
     6     2    16 1   
     7     2    56 1   
     8     3    22 1   
     9     3    27 1   
    10     3    28 1   
    11     4     5 1   
    12     4     6 1   
    13     4     9 1   
    14     4    23 1   
    15     5    29 1   
    16     5    30 1   
    17     5    31 1   
    18     6    24 1   
    19     6    32 1   
    20     6    33 1   
    21     7     8 1   
    22     7    24 1   
    23     7    25 1   
    24     7    34 1   
    25     8     9 1   
    26     8    35 1   
    27     8    36 1   
    28     9    10 1   
    29     9    37 1   
    30    10    11 1   
    31    10    38 1   
    32    10    39 1   
    33    11    12 1   
    34    11    40 1   
    35    11    41 1   
    36    12    13 1   
    37    12    23 1   
    38    12    42 1   
    39    13    14 1   
    40    13    43 1   
    41    14    15 1   
    42    14    44 1   
    43    14    45 1   
    44    15    16 2   
    45    15    46 1   
    46    16    17 1   
    47    17    21 ar  
    48    18    19 ar  
    49    18    47 1   
    50    19    20 ar  
    51    19    48 1   
    52    20    21 ar  
    53    21    49 1   
    54    22    23 1   
    55    22    50 1   
    56    22    51 1   
    57    23    52 1   
    58    24    53 1   
    59    24    54 1   
    60    25    55 1   
    61    56    57 1   
    62    56    58 1   
    63    56    59 1   
@<TRIPOS>SUBSTRUCTURE
     1 8QD         1 TEMP              0 ****  ****    0 ROOT
