@<TRIPOS>MOLECULE
8QD
   59    63     1     0     0
SMALL
No Charge or Current Charge


@<TRIPOS>ATOM
      1 C10         -4.9990    -0.2930     1.4240 ca         1 8QD      -0.072000
      2 C15         -1.6590    -0.3090    -0.5750 c5         1 8QD      -0.004800
      3 C17         -1.1930     1.1200    -0.1830 c6         1 8QD      -0.060400
      4 C20          2.7970     0.4510    -0.4350 c6         1 8QD      -0.029000
      5 C21          2.9710     0.3640    -1.9990 c3         1 8QD      -0.082100
      6 C22          3.3180     1.8480     0.0570 c6         1 8QD      -0.064400
      7 C24          5.6800     0.9110     0.5410 c6         1 8QD       0.172300
      8 C26          5.1720    -0.4920     0.1110 c6         1 8QD      -0.063400
      9 C01          3.6370    -0.6520     0.3200 c6         1 8QD      -0.053700
     10 C02          3.1600    -2.0900    -0.0220 c6         1 8QD      -0.069400
     11 C03          1.6700    -2.2750     0.3480 c6         1 8QD      -0.069400
     12 C04          0.7700    -1.2120    -0.3370 c6         1 8QD      -0.042700
     13 C05         -0.7040    -1.3270     0.1340 c5         1 8QD      -0.066700
     14 C06         -1.4940    -2.6660     0.0210 c5         1 8QD      -0.043200
     15 C07         -2.8950    -2.1710     0.3430 c2         1 8QD      -0.210200
     16 C08         -2.9290    -0.8490     0.0790 ce         1 8QD      -0.069400
     17 C09         -4.1580    -0.0310     0.3240 ca         1 8QD      -0.076800
     18 C11         -6.1450     0.5060     1.6170 ca         1 8QD      -0.164000
     19 C12         -6.4470     1.5530     0.7230 ca         1 8QD       0.332900
     20 N13         -5.6800     1.8540    -0.3490 nb         1 8QD      -0.669000
     21 C14         -4.5610     1.0630    -0.5240 ca         1 8QD       0.343900
     22 C18          0.2980     1.3480    -0.5910 c6         1 8QD      -0.072400
     23 C19          1.2780     0.2510    -0.0220 c6         1 8QD      -0.048700
     24 C23          4.8520     2.0370    -0.1290 c6         1 8QD      -0.110400
     25 O25          5.6390     1.0480     1.9660 oh         1 8QD      -0.662000
     26 H101        -4.7680    -1.0910     2.1260 ha         1 8QD       0.118000
     27 H171        -1.8260     1.8820    -0.6560 hc         1 8QD       0.044700
     28 H172        -1.3000     1.2600     0.9010 hc         1 8QD       0.044700
     29 H211         2.4680     1.1940    -2.5060 hc         1 8QD       0.031367
     30 H213         4.0190     0.4110    -2.3100 hc         1 8QD       0.031367
     31 H212         2.5700    -0.5610    -2.4240 hc         1 8QD       0.031367
     32 H222         2.8090     2.6580    -0.4810 hc         1 8QD       0.042700
     33 H221         3.0660     1.9860     1.1180 hc         1 8QD       0.042700
     34 H241         6.7230     1.0110     0.2060 h1         1 8QD       0.028700
     35 H262         5.4370    -0.6780    -0.9370 hc         1 8QD       0.047200
     36 H261         5.7070    -1.2590     0.6890 hc         1 8QD       0.047200
     37 H011         3.4590    -0.5190     1.3970 hc         1 8QD       0.061700
     38 H022         3.3180    -2.3130    -1.0860 hc         1 8QD       0.039200
     39 H021         3.7600    -2.8230     0.5350 hc         1 8QD       0.039200
     40 H031         1.3480    -3.2840     0.0590 hc         1 8QD       0.039200
     41 H032         1.5570    -2.2130     1.4390 hc         1 8QD       0.039200
     42 H041         0.8000    -1.3980    -1.4160 hc         1 8QD       0.052700
     43 H051        -0.6490    -1.0830     1.2040 hc         1 8QD       0.048700
     44 H061        -1.4360    -3.1150    -0.9780 hc         1 8QD       0.053200
     45 H062        -1.1480    -3.4140     0.7440 hc         1 8QD       0.053200
     46 H071        -3.7060    -2.7630     0.7690 ha         1 8QD       0.186000
     47 H111        -6.8040     0.3200     2.4620 ha         1 8QD       0.122000
     48 H121        -7.3320     2.1700     0.8730 h4         1 8QD       0.018100
     49 H141        -3.9650     1.3210    -1.3960 h4         1 8QD       0.021100
     50 H181         0.3690     1.4000    -1.6830 hc         1 8QD       0.039700
     51 H182         0.5920     2.3400    -0.2270 hc         1 8QD       0.039700
     52 H191         1.2370     0.3640     1.0710 hc         1 8QD       0.044700
     53 H231         5.0980     2.0810    -1.1980 hc         1 8QD       0.041200
     54 H232         5.1530     3.0130     0.2770 hc         1 8QD       0.041200
     55 H251         5.9660     1.9510     2.1690 ho         1 8QD       0.438000
     56 C16         -1.7480    -0.4480    -2.1320 c3         1 8QD      -0.080100
     57 H161        -2.4140     0.3050    -2.5650 hc         1 8QD       0.035367
     58 H163        -0.7780    -0.3290    -2.6240 hc         1 8QD       0.035367
     59 H162        -2.1410    -1.4260    -2.4320 hc         1 8QD       0.035367
@<TRIPOS>BOND
     1     1    17 ar  
     2     1    18 ar  
     3     1    26 1   
     4     2     3 1   
     5     2    13 1   
     6     2    16 1   
     7     2    56 1   
     8     3    22 1   
     9     3    27 1   
    10     3    28 1   
    11     4     5 1   
    12     4     6 1   
    13     4     9 1   
    14     4    23 1   
    15     5    29 1   
    16     5    30 1   
    17     5    31 1   
    18     6    24 1   
    19     6    32 1   
    20     6    33 1   
    21     7     8 1   
    22     7    24 1   
    23     7    25 1   
    24     7    34 1   
    25     8     9 1   
    26     8    35 1   
    27     8    36 1   
    28     9    10 1   
    29     9    37 1   
    30    10    11 1   
    31    10    38 1   
    32    10    39 1   
    33    11    12 1   
    34    11    40 1   
    35    11    41 1   
    36    12    13 1   
    37    12    23 1   
    38    12    42 1   
    39    13    14 1   
    40    13    43 1   
    41    14    15 1   
    42    14    44 1   
    43    14    45 1   
    44    15    16 2   
    45    15    46 1   
    46    16    17 1   
    47    17    21 ar  
    48    18    19 ar  
    49    18    47 1   
    50    19    20 ar  
    51    19    48 1   
    52    20    21 ar  
    53    21    49 1   
    54    22    23 1   
    55    22    50 1   
    56    22    51 1   
    57    23    52 1   
    58    24    53 1   
    59    24    54 1   
    60    25    55 1   
    61    56    57 1   
    62    56    58 1   
    63    56    59 1   
@<TRIPOS>SUBSTRUCTURE
     1 8QD         1 TEMP              0 ****  ****    0 ROOT
