@<TRIPOS>MOLECULE
8QE
   44    45     1     0     0
SMALL
No Charge or Current Charge


@<TRIPOS>ATOM
      1 C1           4.8040    -0.5070     0.2510 ca         1 8QE      -0.187600
      2 C2           2.7300    -1.7270    -0.2030 ca         1 8QE      -0.174500
      3 C4           1.9690    -0.6310     0.2230 ca         1 8QE       0.344000
      4 C6           2.6240     0.5190     0.6890 ca         1 8QE      -0.174500
      5 C8          -0.4420     0.1380     0.1120 ca         1 8QE       0.716900
      6 C11         -2.7070     1.5950    -0.0510 ca         1 8QE      -0.303000
      7 C13         -2.6750     0.2550     0.3370 ca         1 8QE       0.748900
      8 C15         -3.9410     2.3120    -0.1110 cg         1 8QE       0.350000
      9 N24         -4.9550     2.8870    -0.1530 n1         1 8QE      -0.506000
     10 C9          -1.4970     2.1870    -0.3970 ca         1 8QE       0.468000
     11 N14         -1.4050     3.4800    -0.8160 nv         1 8QE      -1.098000
     12 C10         -0.3360     1.4450    -0.3240 ca         1 8QE      -0.374000
     13 N16         -3.8150    -0.4320     0.7060 nu         1 8QE      -0.931100
     14 C17         -4.2920    -1.7280     0.2010 c3         1 8QE       0.269200
     15 C20         -3.6640    -2.8750     1.0280 c3         1 8QE      -0.103767
     16 C19         -5.8260    -1.7360     0.3940 c3         1 8QE      -0.103767
     17 C18         -3.9660    -1.8820    -1.3070 c3         1 8QE      -0.103767
     18 N12         -1.5640    -0.4680     0.4210 nb         1 8QE      -0.864000
     19 N7           0.5840    -0.7340     0.2160 nu         1 8QE      -0.948900
     20 C3           4.1350    -1.6670    -0.1970 ca         1 8QE      -0.037500
     21 C5           4.0280     0.5880     0.7000 ca         1 8QE      -0.037500
     22 C21          6.3160    -0.4710     0.2470 c          1 8QE       0.620700
     23 O22          6.9960    -1.4120    -0.1300 o          1 8QE      -0.607100
     24 N23          6.9330     0.6490     0.6780 nt         1 8QE      -0.604000
     25 H1           2.2350    -2.6290    -0.5520 ha         1 8QE       0.125000
     26 H2           2.0520     1.3600     1.0680 ha         1 8QE       0.125000
     27 H3          -2.2530     3.9810    -1.0710 hn         1 8QE       0.486000
     28 H4          -0.5360     3.8020    -1.2360 hn         1 8QE       0.486000
     29 H5           0.6180     1.8650    -0.6130 ha         1 8QE       0.130000
     30 H6          -4.5540     0.2050     0.9840 hn         1 8QE       0.500000
     31 H7          -3.8600    -2.7390     2.0980 hc         1 8QE       0.045478
     32 H8          -4.0850    -3.8420     0.7280 hc         1 8QE       0.045478
     33 H9          -2.5800    -2.9280     0.8840 hc         1 8QE       0.045478
     34 H10         -6.3000    -0.9240    -0.1710 hc         1 8QE       0.045478
     35 H11         -6.2560    -2.6830     0.0440 hc         1 8QE       0.045478
     36 H12         -6.0920    -1.6180     1.4520 hc         1 8QE       0.045478
     37 H13         -2.8860    -1.9380    -1.4830 hc         1 8QE       0.045478
     38 H14         -4.4110    -2.8030    -1.7040 hc         1 8QE       0.045478
     39 H15         -4.3650    -1.0390    -1.8830 hc         1 8QE       0.045478
     40 H16          0.2090    -1.6710     0.3030 hn         1 8QE       0.509000
     41 H17          4.7010    -2.5300    -0.5430 ha         1 8QE       0.124000
     42 H18          4.4970     1.4980     1.0690 ha         1 8QE       0.124000
     43 H19          6.3940     1.4400     0.9930 hn         1 8QE       0.312000
     44 H20          7.9420     0.6840     0.6790 hn         1 8QE       0.312000
@<TRIPOS>BOND
     1     1    20 ar  
     2     1    21 ar  
     3     1    22 1   
     4     2     3 ar  
     5     2    20 ar  
     6     2    25 1   
     7     3     4 ar  
     8     3    19 1   
     9     4    21 ar  
    10     4    26 1   
    11     5    12 ar  
    12     5    18 ar  
    13     5    19 1   
    14     6     7 ar  
    15     6     8 1   
    16     6    10 ar  
    17     7    13 1   
    18     7    18 ar  
    19     8     9 3   
    20    10    11 1   
    21    10    12 ar  
    22    11    27 1   
    23    11    28 1   
    24    12    29 1   
    25    13    14 1   
    26    13    30 1   
    27    14    15 1   
    28    14    16 1   
    29    14    17 1   
    30    15    31 1   
    31    15    32 1   
    32    15    33 1   
    33    16    34 1   
    34    16    35 1   
    35    16    36 1   
    36    17    37 1   
    37    17    38 1   
    38    17    39 1   
    39    19    40 1   
    40    20    41 1   
    41    21    42 1   
    42    22    23 2   
    43    22    24 1   
    44    24    43 1   
    45    24    44 1   
@<TRIPOS>SUBSTRUCTURE
     1 8QE         1 TEMP              0 ****  ****    0 ROOT
