@<TRIPOS>MOLECULE
8QE
   44    45     1     0     0
SMALL
abcg2


@<TRIPOS>ATOM
      1 C1           4.7110    -0.5250     0.2410 ca         1 8QE      -0.187600
      2 C2           2.7430    -1.6670    -0.5680 ca         1 8QE      -0.174500
      3 C4           1.9120    -0.6920    -0.0040 ca         1 8QE       0.344000
      4 C6           2.5020     0.3500     0.7160 ca         1 8QE      -0.174500
      5 C8          -0.4680     0.0730    -0.1130 ca         1 8QE       0.716900
      6 C11         -2.6520     1.6930    -0.0640 ca         1 8QE      -0.303000
      7 C13         -2.7510     0.2730    -0.0030 ca         1 8QE       0.748900
      8 C15         -3.8020     2.5000    -0.0020 cg         1 8QE       0.350000
      9 N24         -4.7510     3.1610     0.0500 n1         1 8QE      -0.506000
     10 C9          -1.3750     2.2830    -0.1940 ca         1 8QE       0.468000
     11 N14         -1.2310     3.6190    -0.2640 nv         1 8QE      -1.098000
     12 C10         -0.2580     1.4420    -0.2220 ca         1 8QE      -0.374000
     13 N16         -3.9610    -0.3050     0.0890 nu         1 8QE      -0.931100
     14 C17         -4.2770    -1.7390     0.1390 c3         1 8QE       0.269200
     15 C20         -3.6480    -2.4010     1.3650 c3         1 8QE      -0.103767
     16 C19         -5.8000    -1.8170     0.2600 c3         1 8QE      -0.103767
     17 C18         -3.8410    -2.4440    -1.1460 c3         1 8QE      -0.103767
     18 N12         -1.6740    -0.4950    -0.0250 nb         1 8QE      -0.864000
     19 N7           0.5440    -0.8510    -0.1360 nu         1 8QE      -0.948900
     20 C3           4.1140    -1.5890    -0.4340 ca         1 8QE      -0.037500
     21 C5           3.8800     0.4310     0.8210 ca         1 8QE      -0.037500
     22 C21          6.1980    -0.4900     0.3410 c          1 8QE       0.620700
     23 O22          6.8690    -1.4960     0.1450 o          1 8QE      -0.607100
     24 N23          6.7520     0.6930     0.6580 nt         1 8QE      -0.604000
     25 H1           2.3040    -2.4910    -1.1160 ha         1 8QE       0.125000
     26 H2           1.8960     1.0850     1.2250 ha         1 8QE       0.125000
     27 H3          -2.0180     4.2110    -0.4660 hn         1 8QE       0.486000
     28 H4          -0.3320     4.0020    -0.5000 hn         1 8QE       0.486000
     29 H5           0.7230     1.8650    -0.3730 ha         1 8QE       0.130000
     30 H6          -4.7580     0.3090     0.0630 hn         1 8QE       0.500000
     31 H7          -3.9790    -1.9090     2.2810 hc         1 8QE       0.045478
     32 H8          -3.9530    -3.4470     1.4180 hc         1 8QE       0.045478
     33 H9          -2.5620    -2.3660     1.3250 hc         1 8QE       0.045478
     34 H10         -6.2920    -1.3510    -0.5970 hc         1 8QE       0.045478
     35 H11         -6.1210    -2.8570     0.3010 hc         1 8QE       0.045478
     36 H12         -6.1490    -1.3230     1.1690 hc         1 8QE       0.045478
     37 H13         -2.7600    -2.4170    -1.2690 hc         1 8QE       0.045478
     38 H14         -4.1530    -3.4890    -1.1210 hc         1 8QE       0.045478
     39 H15         -4.3010    -1.9760    -2.0180 hc         1 8QE       0.045478
     40 H16          0.2180    -1.7930    -0.2940 hn         1 8QE       0.509000
     41 H17          4.7290    -2.3590    -0.8800 ha         1 8QE       0.124000
     42 H18          4.2900     1.2470     1.4030 ha         1 8QE       0.124000
     43 H19          6.2310     1.5530     0.6600 hn         1 8QE       0.312000
     44 H20          7.7550     0.7720     0.6980 hn         1 8QE       0.312000
@<TRIPOS>BOND
     1     1    20 ar  
     2     1    21 ar  
     3     1    22 1   
     4     2     3 ar  
     5     2    20 ar  
     6     2    25 1   
     7     3     4 ar  
     8     3    19 1   
     9     4    21 ar  
    10     4    26 1   
    11     5    12 ar  
    12     5    18 ar  
    13     5    19 1   
    14     6     7 ar  
    15     6     8 1   
    16     6    10 ar  
    17     7    13 1   
    18     7    18 ar  
    19     8     9 3   
    20    10    11 1   
    21    10    12 ar  
    22    11    27 1   
    23    11    28 1   
    24    12    29 1   
    25    13    14 1   
    26    13    30 1   
    27    14    15 1   
    28    14    16 1   
    29    14    17 1   
    30    15    31 1   
    31    15    32 1   
    32    15    33 1   
    33    16    34 1   
    34    16    35 1   
    35    16    36 1   
    36    17    37 1   
    37    17    38 1   
    38    17    39 1   
    39    19    40 1   
    40    20    41 1   
    41    21    42 1   
    42    22    23 2   
    43    22    24 1   
    44    24    43 1   
    45    24    44 1   
@<TRIPOS>SUBSTRUCTURE
     1 8QE         1 TEMP              0 ****  ****    0 ROOT
