@<TRIPOS>MOLECULE
8QF
   90    93     1     0     0
SMALL
abcg2


@<TRIPOS>ATOM
      1 C1          56.0390    52.5520     0.1790 c3         1 8QF      -0.047700
      2 C2          55.8220    51.0260     0.1640 c5         1 8QF      -0.061700
      3 C3          55.0570    50.4530     1.3740 c5         1 8QF      -0.078400
      4 O1          49.0860    47.2550    -0.4610 o          1 8QF      -0.733867
      5 C4          54.4740    49.1330     0.8770 c5         1 8QF      -0.073400
      6 O2          48.8430    44.8820     0.0940 o          1 8QF      -0.733867
      7 O3          48.9360    45.6050    -2.2440 o          1 8QF      -0.733867
      8 O4          53.9310    44.7050    -5.6300 os         1 8QF      -0.622700
      9 C5          53.9520    49.5360    -0.5020 c5         1 8QF      -0.047700
     10 C6          55.0950    50.4040    -1.1050 c5         1 8QF      -0.041000
     11 C7          54.4790    51.4200    -2.0720 c3         1 8QF      -0.075100
     12 O5          53.6950    44.5420    -7.9950 o          1 8QF      -0.730533
     13 C8          56.0990    49.5000    -1.8480 c6         1 8QF      -0.062400
     14 C9          55.4620    48.5370    -2.8450 c6         1 8QF      -0.070400
     15 C10         54.4650    47.6060    -2.1470 c6         1 8QF      -0.052700
     16 C11         53.3940    48.4450    -1.4320 c6         1 8QF      -0.044700
     17 O6          53.8380    42.4720    -6.6990 o          1 8QF      -0.730533
     18 O7          55.8190    43.8650    -6.9750 o          1 8QF      -0.730533
     19 O11         52.8500    40.7910    -2.5710 o          1 8QF      -0.731200
     20 S2          54.2040    41.3270    -2.4570 s6         1 8QF       1.526300
     21 O9          54.8410    41.0780    -1.1720 o          1 8QF      -0.731200
     22 O10         55.0420    41.0140    -3.6100 o          1 8QF      -0.731200
     23 O8          54.0450    42.9440    -2.4260 os         1 8QF      -0.621700
     24 C19         53.3970    43.5750    -3.5640 c6         1 8QF       0.206300
     25 C20         52.2960    44.4820    -3.0450 c6         1 8QF      -0.058400
     26 C14         52.8580    45.6600    -2.2450 c6         1 8QF      -0.051700
     27 C13         51.7750    46.5110    -1.5940 c6         1 8QF       0.233300
     28 O           50.9280    45.6400    -0.7860 os         1 8QF      -0.600700
     29 S           49.3260    45.8700    -0.8610 s6         1 8QF       1.527300
     30 C12         52.3920    47.5610    -0.6890 c6         1 8QF      -0.094400
     31 C18         54.4740    44.3390    -4.3340 c6         1 8QF       0.212300
     32 S1          54.3600    43.8170    -6.9220 s6         1 8QF       1.526300
     33 C17         54.9410    45.5980    -3.6110 c6         1 8QF      -0.056400
     34 C15         53.8290    46.5360    -3.0890 c6         1 8QF      -0.025000
     35 C16         53.1100    47.2160    -4.2680 c3         1 8QF      -0.075100
     36 C           57.1550    52.9450    -0.7980 c3         1 8QF      -0.086100
     37 C21         56.3560    53.0870     1.5850 c3         1 8QF      -0.074400
     38 C22         56.4890    54.6090     1.6610 c3         1 8QF      -0.074400
     39 C23         56.6310    55.1080     3.0990 c3         1 8QF      -0.067400
     40 C24         56.7530    56.6340     3.3000 c3         1 8QF      -0.050000
     41 C27         56.8860    56.9040     4.8050 c3         1 8QF      -0.081433
     42 C26         57.9950    57.1830     2.5860 c3         1 8QF      -0.081433
     43 C25         55.5020    57.3550     2.7770 c3         1 8QF      -0.081433
     44 H1          55.1100    53.0380    -0.1380 hc         1 8QF       0.046700
     45 H2          56.8240    50.5840     0.1930 hc         1 8QF       0.037700
     46 H3          55.6950    50.3450     2.2520 hc         1 8QF       0.025700
     47 H4          54.2330    51.1190     1.6520 hc         1 8QF       0.025700
     48 H5          53.6930    48.7460     1.5330 hc         1 8QF       0.054200
     49 H6          55.2520    48.3670     0.8010 hc         1 8QF       0.054200
     50 H7          53.1130    50.2150    -0.3080 hc         1 8QF       0.032700
     51 H8          53.8020    52.0970    -1.5490 hc         1 8QF       0.027700
     52 H9          55.2290    52.0190    -2.5880 hc         1 8QF       0.027700
     53 H10         53.8930    50.9060    -2.8360 hc         1 8QF       0.027700
     54 H11         56.6530    48.9090    -1.1120 hc         1 8QF       0.021700
     55 H12         56.8390    50.1310    -2.3490 hc         1 8QF       0.021700
     56 H13         56.2500    47.9570    -3.3300 hc         1 8QF       0.042200
     57 H14         54.9570    49.0960    -3.6350 hc         1 8QF       0.042200
     58 H15         55.0190    47.0460    -1.3820 hc         1 8QF       0.044700
     59 H16         52.8370    48.9790    -2.2080 hc         1 8QF       0.043700
     60 H17         52.9840    42.8040    -4.2110 h1         1 8QF       0.088700
     61 H18         51.7100    44.8380    -3.8940 hc         1 8QF       0.066700
     62 H19         51.6240    43.8920    -2.4220 hc         1 8QF       0.066700
     63 H20         53.4520    45.2420    -1.4240 hc         1 8QF       0.069700
     64 H21         51.1490    46.9740    -2.3580 h1         1 8QF       0.045700
     65 H22         51.6040    48.1720    -0.2460 hc         1 8QF       0.049700
     66 H23         52.8950    47.0360     0.1280 hc         1 8QF       0.049700
     67 H24         55.3270    43.6800    -4.4880 h1         1 8QF       0.075700
     68 H25         55.5370    45.2660    -2.7550 hc         1 8QF       0.032700
     69 H26         55.6140    46.1350    -4.2790 hc         1 8QF       0.032700
     70 H27         52.4380    48.0070    -3.9370 hc         1 8QF       0.031700
     71 H28         53.8360    47.6610    -4.9480 hc         1 8QF       0.031700
     72 H29         52.5270    46.5050    -4.8470 hc         1 8QF       0.031700
     73 H30         57.1930    54.0230    -0.9600 hc         1 8QF       0.027367
     74 H31         58.1240    52.6330    -0.3970 hc         1 8QF       0.027367
     75 H32         57.0360    52.4700    -1.7700 hc         1 8QF       0.027367
     76 H33         55.5660    52.7830     2.2750 hc         1 8QF       0.037700
     77 H34         57.2800    52.6210     1.9490 hc         1 8QF       0.037700
     78 H35         57.3470    54.9390     1.0730 hc         1 8QF       0.035200
     79 H36         55.6050    55.0590     1.1980 hc         1 8QF       0.035200
     80 H37         55.7690    54.7590     3.6790 hc         1 8QF       0.036200
     81 H38         57.5120    54.6360     3.5490 hc         1 8QF       0.036200
     82 H39         56.0130    56.5290     5.3460 hc         1 8QF       0.029367
     83 H40         57.7730    56.4110     5.2120 hc         1 8QF       0.029367
     84 H41         56.9730    57.9750     5.0030 hc         1 8QF       0.029367
     85 H42         58.8990    56.6720     2.9290 hc         1 8QF       0.029367
     86 H43         57.9270    57.0570     1.5040 hc         1 8QF       0.029367
     87 H44         58.1120    58.2500     2.7910 hc         1 8QF       0.029367
     88 H45         54.5990    56.9630     3.2520 hc         1 8QF       0.029367
     89 H46         55.5610    58.4250     2.9940 hc         1 8QF       0.029367
     90 H47         55.3930    57.2400     1.6970 hc         1 8QF       0.029367
@<TRIPOS>BOND
     1     1     2 1   
     2     1    36 1   
     3     1    37 1   
     4     1    44 1   
     5     2     3 1   
     6     2    10 1   
     7     2    45 1   
     8     3     5 1   
     9     3    46 1   
    10     3    47 1   
    11     4    29 1   
    12     5     9 1   
    13     5    48 1   
    14     5    49 1   
    15     6    29 1   
    16     7    29 1   
    17     8    31 1   
    18     8    32 1   
    19     9    10 1   
    20     9    16 1   
    21     9    50 1   
    22    10    11 1   
    23    10    13 1   
    24    11    51 1   
    25    11    52 1   
    26    11    53 1   
    27    12    32 1   
    28    13    14 1   
    29    13    54 1   
    30    13    55 1   
    31    14    15 1   
    32    14    56 1   
    33    14    57 1   
    34    15    16 1   
    35    15    34 1   
    36    15    58 1   
    37    16    30 1   
    38    16    59 1   
    39    17    32 1   
    40    18    32 1   
    41    19    20 1   
    42    20    21 1   
    43    20    22 1   
    44    20    23 1   
    45    23    24 1   
    46    24    25 1   
    47    24    31 1   
    48    24    60 1   
    49    25    26 1   
    50    25    61 1   
    51    25    62 1   
    52    26    27 1   
    53    26    34 1   
    54    26    63 1   
    55    27    28 1   
    56    27    30 1   
    57    27    64 1   
    58    28    29 1   
    59    30    65 1   
    60    30    66 1   
    61    31    33 1   
    62    31    67 1   
    63    33    34 1   
    64    33    68 1   
    65    33    69 1   
    66    34    35 1   
    67    35    70 1   
    68    35    71 1   
    69    35    72 1   
    70    36    73 1   
    71    36    74 1   
    72    36    75 1   
    73    37    38 1   
    74    37    76 1   
    75    37    77 1   
    76    38    39 1   
    77    38    78 1   
    78    38    79 1   
    79    39    40 1   
    80    39    80 1   
    81    39    81 1   
    82    40    41 1   
    83    40    42 1   
    84    40    43 1   
    85    41    82 1   
    86    41    83 1   
    87    41    84 1   
    88    42    85 1   
    89    42    86 1   
    90    42    87 1   
    91    43    88 1   
    92    43    89 1   
    93    43    90 1   
@<TRIPOS>SUBSTRUCTURE
     1 8QF         1 TEMP              0 ****  ****    0 ROOT
