@<TRIPOS>MOLECULE
8QF
   90    93     1     0     0
SMALL
No Charge or Current Charge


@<TRIPOS>ATOM
      1 C1          55.9810    52.6400     0.2100 c3         1 8QF      -0.047700
      2 C2          55.6270    51.0440     0.1680 c5         1 8QF      -0.061700
      3 C3          54.7580    50.5050     1.3420 c5         1 8QF      -0.078400
      4 O1          48.7700    47.0680    -1.0070 o          1 8QF      -0.733867
      5 C4          54.3890    49.0970     0.8200 c5         1 8QF      -0.073400
      6 O2          48.5440    44.7410    -0.2100 o          1 8QF      -0.733867
      7 O3          48.9900    45.1950    -2.5970 o          1 8QF      -0.733867
      8 O4          53.9270    44.5200    -5.6570 os         1 8QF      -0.622700
      9 C5          53.7840    49.5370    -0.5320 c5         1 8QF      -0.047700
     10 C6          54.9200    50.4480    -1.1400 c5         1 8QF      -0.041000
     11 C7          54.2630    51.5070    -2.0800 c3         1 8QF      -0.075100
     12 O5          53.6400    44.2140    -8.0710 o          1 8QF      -0.730533
     13 C8          55.9550    49.6010    -1.9550 c6         1 8QF      -0.062400
     14 C9          55.3040    48.6110    -2.9470 c6         1 8QF      -0.070400
     15 C10         54.3390    47.6230    -2.2130 c6         1 8QF      -0.052700
     16 C11         53.2130    48.4430    -1.4980 c6         1 8QF      -0.044700
     17 O6          53.9680    42.2570    -6.6010 o          1 8QF      -0.730533
     18 O7          55.8410    43.8090    -7.0240 o          1 8QF      -0.730533
     19 O11         53.3850    40.6180    -2.4070 o          1 8QF      -0.731200
     20 S2          54.6400    41.3540    -2.2000 s6         1 8QF       1.526300
     21 O9          55.2120    41.2110    -0.8530 o          1 8QF      -0.731200
     22 O10         55.6130    41.2090    -3.2900 o          1 8QF      -0.731200
     23 O8          54.1960    42.9330    -2.2710 os         1 8QF      -0.621700
     24 C19         53.5260    43.4140    -3.4630 c6         1 8QF       0.206300
     25 C20         52.3280    44.3070    -3.0340 c6         1 8QF      -0.058400
     26 C14         52.7920    45.5920    -2.2760 c6         1 8QF      -0.051700
     27 C13         51.6030    46.4280    -1.6990 c6         1 8QF       0.233300
     28 O           50.7350    45.5910    -0.9130 os         1 8QF      -0.600700
     29 S           49.1200    45.6550    -1.2070 s6         1 8QF       1.527300
     30 C12         52.2010    47.5160    -0.7690 c6         1 8QF      -0.094400
     31 C18         54.5120    44.2300    -4.3660 c6         1 8QF       0.212300
     32 S1          54.3850    43.6210    -6.9510 s6         1 8QF       1.526300
     33 C17         54.9330    45.5560    -3.6510 c6         1 8QF      -0.056400
     34 C15         53.7570    46.4810    -3.1510 c6         1 8QF      -0.025000
     35 C16         53.0130    47.1140    -4.3900 c3         1 8QF      -0.075100
     36 C           57.1150    53.0690    -0.7990 c3         1 8QF      -0.086100
     37 C21         56.3530    53.1810     1.6500 c3         1 8QF      -0.074400
     38 C22         56.5680    54.7120     1.7570 c3         1 8QF      -0.074400
     39 C23         56.7800    55.1830     3.2200 c3         1 8QF      -0.067400
     40 C24         57.0120    56.7140     3.4410 c3         1 8QF      -0.050000
     41 C27         57.1970    56.9650     4.9610 c3         1 8QF      -0.081433
     42 C26         58.2900    57.1970     2.7020 c3         1 8QF      -0.081433
     43 C25         55.7900    57.5380     2.9500 c3         1 8QF      -0.081433
     44 H1          55.0960    53.2440    -0.0800 hc         1 8QF       0.046700
     45 H2          56.6130    50.5800     0.2880 hc         1 8QF       0.037700
     46 H3          55.3210    50.4530     2.2810 hc         1 8QF       0.025700
     47 H4          53.8760    51.1300     1.5270 hc         1 8QF       0.025700
     48 H5          53.6640    48.6040     1.4760 hc         1 8QF       0.054200
     49 H6          55.2570    48.4360     0.7140 hc         1 8QF       0.054200
     50 H7          52.9060    50.1540    -0.3070 hc         1 8QF       0.032700
     51 H8          53.5830    52.1630    -1.5240 hc         1 8QF       0.027700
     52 H9          55.0000    52.1410    -2.5800 hc         1 8QF       0.027700
     53 H10         53.6680    51.0370    -2.8710 hc         1 8QF       0.027700
     54 H11         56.5870    49.0150    -1.2750 hc         1 8QF       0.021700
     55 H12         56.6420    50.2670    -2.4950 hc         1 8QF       0.021700
     56 H13         56.1110    48.0650    -3.4510 hc         1 8QF       0.042200
     57 H14         54.7750    49.1660    -3.7320 hc         1 8QF       0.042200
     58 H15         54.9250    47.1270    -1.4250 hc         1 8QF       0.044700
     59 H16         52.6470    48.9880    -2.2630 hc         1 8QF       0.043700
     60 H17         53.1320    42.5640    -4.0410 h1         1 8QF       0.088700
     61 H18         51.7160    44.5610    -3.9070 hc         1 8QF       0.066700
     62 H19         51.6760    43.7060    -2.3870 hc         1 8QF       0.066700
     63 H20         53.3680    45.2410    -1.4080 hc         1 8QF       0.069700
     64 H21         51.0400    46.8970    -2.5200 h1         1 8QF       0.045700
     65 H22         51.3880    48.1220    -0.3490 hc         1 8QF       0.049700
     66 H23         52.6880    47.0200     0.0810 hc         1 8QF       0.049700
     67 H24         55.4240    43.6320    -4.5080 h1         1 8QF       0.075700
     68 H25         55.5700    45.2900    -2.7960 hc         1 8QF       0.032700
     69 H26         55.5880    46.1090    -4.3370 hc         1 8QF       0.032700
     70 H27         52.3070    47.9010    -4.1110 hc         1 8QF       0.031700
     71 H28         53.7230    47.5600    -5.0950 hc         1 8QF       0.031700
     72 H29         52.4290    46.3840    -4.9570 hc         1 8QF       0.031700
     73 H30         57.1110    54.1530    -0.9650 hc         1 8QF       0.027367
     74 H31         58.1000    52.7790    -0.4160 hc         1 8QF       0.027367
     75 H32         56.9930    52.5900    -1.7740 hc         1 8QF       0.027367
     76 H33         55.5470    52.9130     2.3420 hc         1 8QF       0.037700
     77 H34         57.2530    52.6650     2.0060 hc         1 8QF       0.037700
     78 H35         57.4410    54.9960     1.1600 hc         1 8QF       0.035200
     79 H36         55.6960    55.2190     1.3260 hc         1 8QF       0.035200
     80 H37         55.9090    54.8720     3.8100 hc         1 8QF       0.036200
     81 H38         57.6360    54.6350     3.6340 hc         1 8QF       0.036200
     82 H39         56.3090    56.6470     5.5230 hc         1 8QF       0.029367
     83 H40         58.0590    56.4080     5.3490 hc         1 8QF       0.029367
     84 H41         57.3630    58.0290     5.1690 hc         1 8QF       0.029367
     85 H42         59.1600    56.5950     2.9910 hc         1 8QF       0.029367
     86 H43         58.1750    57.1310     1.6140 hc         1 8QF       0.029367
     87 H44         58.5080    58.2440     2.9450 hc         1 8QF       0.029367
     88 H45         54.8640    57.1830     3.4180 hc         1 8QF       0.029367
     89 H46         55.9100    58.5990     3.2000 hc         1 8QF       0.029367
     90 H47         55.6710    57.4690     1.8620 hc         1 8QF       0.029367
@<TRIPOS>BOND
     1     1     2 1   
     2     1    36 1   
     3     1    37 1   
     4     1    44 1   
     5     2     3 1   
     6     2    10 1   
     7     2    45 1   
     8     3     5 1   
     9     3    46 1   
    10     3    47 1   
    11     4    29 1   
    12     5     9 1   
    13     5    48 1   
    14     5    49 1   
    15     6    29 1   
    16     7    29 1   
    17     8    31 1   
    18     8    32 1   
    19     9    10 1   
    20     9    16 1   
    21     9    50 1   
    22    10    11 1   
    23    10    13 1   
    24    11    51 1   
    25    11    52 1   
    26    11    53 1   
    27    12    32 1   
    28    13    14 1   
    29    13    54 1   
    30    13    55 1   
    31    14    15 1   
    32    14    56 1   
    33    14    57 1   
    34    15    16 1   
    35    15    34 1   
    36    15    58 1   
    37    16    30 1   
    38    16    59 1   
    39    17    32 1   
    40    18    32 1   
    41    19    20 1   
    42    20    21 1   
    43    20    22 1   
    44    20    23 1   
    45    23    24 1   
    46    24    25 1   
    47    24    31 1   
    48    24    60 1   
    49    25    26 1   
    50    25    61 1   
    51    25    62 1   
    52    26    27 1   
    53    26    34 1   
    54    26    63 1   
    55    27    28 1   
    56    27    30 1   
    57    27    64 1   
    58    28    29 1   
    59    30    65 1   
    60    30    66 1   
    61    31    33 1   
    62    31    67 1   
    63    33    34 1   
    64    33    68 1   
    65    33    69 1   
    66    34    35 1   
    67    35    70 1   
    68    35    71 1   
    69    35    72 1   
    70    36    73 1   
    71    36    74 1   
    72    36    75 1   
    73    37    38 1   
    74    37    76 1   
    75    37    77 1   
    76    38    39 1   
    77    38    78 1   
    78    38    79 1   
    79    39    40 1   
    80    39    80 1   
    81    39    81 1   
    82    40    41 1   
    83    40    42 1   
    84    40    43 1   
    85    41    82 1   
    86    41    83 1   
    87    41    84 1   
    88    42    85 1   
    89    42    86 1   
    90    42    87 1   
    91    43    88 1   
    92    43    89 1   
    93    43    90 1   
@<TRIPOS>SUBSTRUCTURE
     1 8QF         1 TEMP              0 ****  ****    0 ROOT
