@<TRIPOS>MOLECULE
8QG
   16    17     1     0     0
SMALL
abcg2


@<TRIPOS>ATOM
      1 C11         -2.8390    -1.0600     0.0310 cc         1 8QG       0.261900
      2 C02          2.0970    -0.1720    -0.0310 cc         1 8QG      -0.033000
      3 C03          1.6930    -1.4680    -0.0490 cd         1 8QG      -0.111000
      4 C04          0.2780    -1.5780    -0.0360 cd         1 8QG      -0.136000
      5 C05         -0.3670    -0.3730    -0.0070 cc         1 8QG      -0.096000
      6 C07         -1.7900    -0.1130     0.0110 cc         1 8QG      -0.139000
      7 C08         -2.4460     1.1050     0.0130 cd         1 8QG      -0.160000
      8 N09         -3.7560     0.8280     0.0320 na         1 8QG       0.003800
      9 N10         -4.0180    -0.4730     0.0420 nd         1 8QG      -0.518800
     10 S06          0.7740     0.9280     0.0050 ss         1 8QG       0.214000
     11 H1          -2.7650    -2.1360     0.0370 h4         1 8QG       0.042100
     12 H2           2.3690    -2.3090    -0.0720 ha         1 8QG       0.145000
     13 H3          -0.2390    -2.5270    -0.0490 ha         1 8QG       0.137000
     14 H4          -2.0810     2.1190     0.0010 h4         1 8QG       0.159000
     15 H5          -4.5130     1.4930     0.0350 hn         1 8QG       0.375000
     16 CL           3.7010     0.4140    -0.0380 cl         1 8QG      -0.145000
@<TRIPOS>BOND
     1     1     6 1   
     2     1     9 2   
     3     1    11 1   
     4     2     3 2   
     5     2    10 1   
     6     2    16 1   
     7     3     4 1   
     8     3    12 1   
     9     4     5 2   
    10     4    13 1   
    11     5     6 1   
    12     5    10 1   
    13     6     7 2   
    14     7     8 1   
    15     7    14 1   
    16     8     9 1   
    17     8    15 1   
@<TRIPOS>SUBSTRUCTURE
     1 8QG         1 TEMP              0 ****  ****    0 ROOT
