@<TRIPOS>MOLECULE
8QG
   16    17     1     0     0
SMALL
No Charge or Current Charge


@<TRIPOS>ATOM
      1 C11         -2.7980    -1.0810     0.0140 cc         1 8QG       0.261900
      2 C02          2.1210    -0.1660    -0.0390 cc         1 8QG      -0.033000
      3 C03          1.6460    -1.4520    -0.0400 cd         1 8QG      -0.111000
      4 C04          0.2240    -1.5240    -0.0240 cd         1 8QG      -0.136000
      5 C05         -0.3730    -0.2860    -0.0100 cc         1 8QG      -0.096000
      6 C07         -1.7970    -0.0950     0.0070 cc         1 8QG      -0.139000
      7 C08         -2.4230     1.1130     0.0210 cd         1 8QG      -0.160000
      8 N09         -3.7900     0.7940     0.0350 na         1 8QG       0.003800
      9 N10         -4.0210    -0.5860     0.0310 nd         1 8QG      -0.518800
     10 S06          0.8170     1.0180    -0.0170 ss         1 8QG       0.214000
     11 H1          -2.6700    -2.1560     0.0070 h4         1 8QG       0.042100
     12 H2           2.2910    -2.3250    -0.0520 ha         1 8QG       0.145000
     13 H3          -0.3210    -2.4620    -0.0220 ha         1 8QG       0.137000
     14 H4          -2.0430     2.1290     0.0220 h4         1 8QG       0.159000
     15 H5          -4.5620     1.4620     0.0480 hn         1 8QG       0.375000
     16 Cl           3.7950     0.2960    -0.0560 cl         1 8QG      -0.145000
@<TRIPOS>BOND
     1     1     6 1   
     2     1     9 2   
     3     1    11 1   
     4     2     3 2   
     5     2    10 1   
     6     2    16 1   
     7     3     4 1   
     8     3    12 1   
     9     4     5 2   
    10     4    13 1   
    11     5     6 1   
    12     5    10 1   
    13     6     7 2   
    14     7     8 1   
    15     7    14 1   
    16     8     9 1   
    17     8    15 1   
@<TRIPOS>SUBSTRUCTURE
     1 8QG         1 TEMP              0 ****  ****    0 ROOT
