@<TRIPOS>MOLECULE
8QH
   41    44     1     0     0
SMALL
No Charge or Current Charge


@<TRIPOS>ATOM
      1 CAA          8.0120    -2.7360    -0.2220 c3         1 8QH      -0.045800
      2 CAF          2.0020     0.3360     0.0070 c2         1 8QH       0.166000
      3 CAG          6.8600    -0.4800    -0.4250 ca         1 8QH      -0.081000
      4 CAH          5.5380    -2.4030     0.2550 ca         1 8QH      -0.081000
      5 CAI          5.7170     0.3340    -0.3380 ca         1 8QH      -0.141000
      6 CAJ          4.3970    -1.5860     0.3400 ca         1 8QH      -0.141000
      7 CAK         -3.8990     1.7270    -0.3370 ca         1 8QH      -0.111000
      8 CAL          0.2880     3.7090     0.7150 c6         1 8QH      -0.171400
      9 CAM         -1.0430     3.4890    -0.0500 c6         1 8QH       0.013800
     10 CAP          1.4280     2.7960     0.2190 c          1 8QH       0.613300
     11 CAQ          1.0940     1.3390     0.0320 ce         1 8QH      -0.334200
     12 CAR          6.7750    -1.8540    -0.1320 ca         1 8QH      -0.089300
     13 CAS         -4.8970     0.7380    -0.4460 ca         1 8QH       0.152100
     14 CAT          4.4800    -0.2140     0.0390 ca         1 8QH       0.278000
     15 CAU         -4.5460    -0.6410    -0.4550 ca         1 8QH       0.023000
     16 CAV         -3.1870    -1.0300    -0.3540 ca         1 8QH       0.166000
     17 CAW         -1.3430     2.0130    -0.1190 cd         1 8QH      -0.178400
     18 CAX         -0.3330     1.0820    -0.0570 cc         1 8QH       0.146100
     19 CAY         -2.5710     1.2990    -0.2380 ca         1 8QH      -0.026800
     20 CAZ         -2.2160    -0.0240    -0.2460 ca         1 8QH       0.022100
     21 NAN          3.3620     0.6150     0.1220 nu         1 8QH      -0.793000
     22 OAC         -6.2050     1.1240    -0.5440 oh         1 8QH      -0.530100
     23 OAO         -0.8500    -0.2110    -0.1390 os         1 8QH      -0.162200
     24 Cl1         -5.8160    -1.8660    -0.5930 cl         1 8QH      -0.177000
     25 Cl2         -2.7080    -2.7300    -0.3610 cl         1 8QH      -0.150000
     26 H1           8.5430    -2.7620     0.7370 hc         1 8QH       0.044700
     27 H2           7.7500    -3.7670    -0.4880 hc         1 8QH       0.044700
     28 H3           8.7110    -2.3690    -0.9830 hc         1 8QH       0.044700
     29 H4           1.7220    -0.7160    -0.1110 h4         1 8QH       0.205000
     30 H5           7.8120    -0.0420    -0.7200 ha         1 8QH       0.117500
     31 H6           5.4610    -3.4620     0.4920 ha         1 8QH       0.117500
     32 H7           5.7960     1.3930    -0.5690 ha         1 8QH       0.122000
     33 H8           3.4530    -2.0240     0.6510 ha         1 8QH       0.122000
     34 H9          -4.1530     2.7840    -0.3300 ha         1 8QH       0.142000
     35 H10          0.6080     4.7590     0.7260 hc         1 8QH       0.070700
     36 H11          0.0840     3.3940     1.7470 hc         1 8QH       0.070700
     37 H12         -1.8580     4.0330     0.4480 hc         1 8QH       0.054700
     38 H13         -0.9620     3.9050    -1.0640 hc         1 8QH       0.054700
     39 H14          3.5720     1.6210     0.0750 hn         1 8QH       0.537000
     40 H15         -6.7580     0.3140    -0.6120 ho         1 8QH       0.479000
     41 OAB          2.5540     3.2490     0.0390 o          1 8QH      -0.595100
@<TRIPOS>BOND
     1     1    12 1   
     2     1    26 1   
     3     1    27 1   
     4     1    28 1   
     5     2    11 2   
     6     2    21 1   
     7     2    29 1   
     8     3     5 ar  
     9     3    12 ar  
    10     3    30 1   
    11     4     6 ar  
    12     4    12 ar  
    13     4    31 1   
    14     5    14 ar  
    15     5    32 1   
    16     6    14 ar  
    17     6    33 1   
    18     7    13 ar  
    19     7    19 ar  
    20     7    34 1   
    21     8     9 1   
    22     8    10 1   
    23     8    35 1   
    24     8    36 1   
    25     9    17 1   
    26     9    37 1   
    27     9    38 1   
    28    10    11 1   
    29    10    41 2   
    30    11    18 1   
    31    13    15 ar  
    32    13    22 1   
    33    14    21 1   
    34    15    16 ar  
    35    15    24 1   
    36    16    20 ar  
    37    16    25 1   
    38    17    18 2   
    39    17    19 1   
    40    18    23 1   
    41    19    20 ar  
    42    20    23 1   
    43    21    39 1   
    44    22    40 1   
@<TRIPOS>SUBSTRUCTURE
     1 8QH         1 TEMP              0 ****  ****    0 ROOT
