@<TRIPOS>MOLECULE
8QH
   41    44     1     0     0
SMALL
abcg2


@<TRIPOS>ATOM
      1 CAA          7.7380    -2.9080    -0.1680 c3         1 8QH      -0.045800
      2 CAF          2.0930     0.5750    -0.0150 c2         1 8QH       0.166000
      3 CAG          6.7880    -0.5930     0.1380 ca         1 8QH      -0.081000
      4 CAH          5.2820    -2.3650    -0.3690 ca         1 8QH      -0.081000
      5 CAI          5.7310     0.2970     0.1890 ca         1 8QH      -0.141000
      6 CAJ          4.2100    -1.4860    -0.3290 ca         1 8QH      -0.141000
      7 CAK         -3.8550     1.5560    -0.3290 ca         1 8QH      -0.111000
      8 CAL          0.2530     3.9100     0.3860 c6         1 8QH      -0.171400
      9 CAM         -1.0530     3.5410    -0.3220 c6         1 8QH       0.013800
     10 CAP          1.4150     2.9620     0.1610 c          1 8QH       0.613300
     11 CAQ          1.1160     1.5420     0.0450 ce         1 8QH      -0.334200
     12 CAR          6.5880    -1.9450    -0.1370 ca         1 8QH      -0.089300
     13 CAS         -4.7490     0.4940    -0.3060 ca         1 8QH       0.152100
     14 CAT          4.4270    -0.1420    -0.0410 ca         1 8QH       0.278000
     15 CAU         -4.2800    -0.8230    -0.1500 ca         1 8QH       0.023000
     16 CAV         -2.9210    -1.0950    -0.0180 ca         1 8QH       0.166000
     17 CAW         -1.3060     2.0820    -0.1670 cd         1 8QH      -0.178400
     18 CAX         -0.2810     1.2080    -0.0090 cc         1 8QH       0.146100
     19 CAY         -2.4970     1.2920    -0.1940 ca         1 8QH      -0.026800
     20 CAZ         -2.0570    -0.0270    -0.0430 ca         1 8QH       0.022100
     21 NAN          3.4020     0.8050     0.0210 nu         1 8QH      -0.793000
     22 OAC         -6.0560     0.7760    -0.4350 oh         1 8QH      -0.530100
     23 OAO         -0.7110    -0.0790     0.0720 os         1 8QH      -0.162200
     24 CL1         -5.4220    -2.1160    -0.1250 cl         1 8QH      -0.177000
     25 CL2         -2.3250    -2.6910     0.1680 cl         1 8QH      -0.150000
     26 H1           8.1050    -3.1170     0.8390 hc         1 8QH       0.044700
     27 H2           7.4500    -3.8580    -0.6160 hc         1 8QH       0.044700
     28 H3           8.5780    -2.5100    -0.7380 hc         1 8QH       0.044700
     29 H4           1.7940    -0.4630    -0.0880 h4         1 8QH       0.205000
     30 H5           7.7910    -0.2240     0.3200 ha         1 8QH       0.117500
     31 H6           5.0880    -3.4060    -0.5960 ha         1 8QH       0.117500
     32 H7           5.9170     1.3420     0.4080 ha         1 8QH       0.122000
     33 H8           3.2200    -1.8690    -0.5400 ha         1 8QH       0.122000
     34 H9          -4.2260     2.5660    -0.4510 ha         1 8QH       0.142000
     35 H10          0.5680     4.9200     0.1230 hc         1 8QH       0.070700
     36 H11          0.0780     3.9060     1.4690 hc         1 8QH       0.070700
     37 H12         -1.8690     4.1310     0.0960 hc         1 8QH       0.054700
     38 H13         -0.9930     3.8030    -1.3830 hc         1 8QH       0.054700
     39 H14          3.6710     1.7810     0.1080 hn         1 8QH       0.537000
     40 H15         -6.5960    -0.0240    -0.4190 ho         1 8QH       0.479000
     41 OAB          2.5670     3.3880     0.1530 o          1 8QH      -0.595100
@<TRIPOS>BOND
     1     1    12 1   
     2     1    26 1   
     3     1    27 1   
     4     1    28 1   
     5     2    11 2   
     6     2    21 1   
     7     2    29 1   
     8     3     5 ar  
     9     3    12 ar  
    10     3    30 1   
    11     4     6 ar  
    12     4    12 ar  
    13     4    31 1   
    14     5    14 ar  
    15     5    32 1   
    16     6    14 ar  
    17     6    33 1   
    18     7    13 ar  
    19     7    19 ar  
    20     7    34 1   
    21     8     9 1   
    22     8    10 1   
    23     8    35 1   
    24     8    36 1   
    25     9    17 1   
    26     9    37 1   
    27     9    38 1   
    28    10    11 1   
    29    10    41 2   
    30    11    18 1   
    31    13    15 ar  
    32    13    22 1   
    33    14    21 1   
    34    15    16 ar  
    35    15    24 1   
    36    16    20 ar  
    37    16    25 1   
    38    17    18 2   
    39    17    19 1   
    40    18    23 1   
    41    19    20 ar  
    42    20    23 1   
    43    21    39 1   
    44    22    40 1   
@<TRIPOS>SUBSTRUCTURE
     1 8QH         1 TEMP              0 ****  ****    0 ROOT
