@<TRIPOS>MOLECULE
8QI
   43    44     1     0     0
SMALL
No Charge or Current Charge


@<TRIPOS>ATOM
      1 C10         20.8580   -10.6180    13.2320 c3         1 8QI       0.167600
      2 C17         22.5590    -7.3660    14.1120 c3         1 8QI       0.158600
      3 C24         20.3710    -5.1350    12.1820 cc         1 8QI       0.450400
      4 C26         21.1770    -5.0910    10.1700 cd         1 8QI       0.078500
      5 C02         22.0270    -7.0950     8.5970 cd         1 8QI       0.675800
      6 C05         21.1700    -6.4090    10.5600 cc         1 8QI       0.094400
      7 C07         20.4330    -7.6460    12.6600 c3         1 8QI       0.032600
      8 C08         21.7330    -8.3170    13.1890 c3         1 8QI       0.123300
      9 C11         20.5990   -11.7860    14.2220 c3         1 8QI      -0.166700
     10 C19         24.8750    -7.8850    13.4020 c3         1 8QI      -0.181400
     11 C27         21.6830    -4.7380     8.8070 c          1 8QI       0.520500
     12 N01         22.4390    -8.0650     7.7930 nv         1 8QI      -1.051200
     13 N03         22.0850    -5.8380     8.1050 ns         1 8QI      -0.463400
     14 N04         21.5930    -7.4670     9.7790 nc         1 8QI      -0.623100
     15 N06         20.6630    -6.4450    11.8350 na         1 8QI      -0.146500
     16 N25         20.6700    -4.2920    11.1910 nd         1 8QI      -0.651000
     17 O09         21.3660    -9.4830    13.9710 os         1 8QI      -0.453000
     18 O12         19.5360   -11.4640    15.1910 oh         1 8QI      -0.811000
     19 O14         19.5680   -13.0990    11.9820 o          1 8QI      -0.916833
     20 O15         19.5900   -14.3300    14.0870 o          1 8QI      -0.916833
     21 O16         21.6800   -13.9670    12.8670 o          1 8QI      -0.916833
     22 O21         26.9320    -6.4310    12.2740 o          1 8QI      -0.937833
     23 O22         26.4020    -5.8960    14.5930 o          1 8QI      -0.937833
     24 O23         24.9120    -5.1680    12.7970 o          1 8QI      -0.937833
     25 P13         20.3520   -13.3840    13.2180 p5         1 8QI       1.282500
     26 P20         25.8250    -6.2540    13.2610 p5         1 8QI       1.307500
     27 H1          21.5960   -10.9360    12.4820 h1         1 8QI       0.019200
     28 H2          19.9240   -10.3740    12.7100 h1         1 8QI       0.019200
     29 H3          22.6910    -6.3940    13.6220 h1         1 8QI       0.045200
     30 H4          21.9850    -7.1890    15.0320 h1         1 8QI       0.045200
     31 H5          19.9460    -4.8730    13.1470 h5         1 8QI       0.169100
     32 H6          19.7950    -7.3760    13.5110 h1         1 8QI       0.062700
     33 H7          19.8750    -8.3570    12.0410 h1         1 8QI       0.062700
     34 H8          22.3490    -8.6080    12.3280 h1         1 8QI       0.050700
     35 H9          21.5330   -11.9720    14.7680 h1         1 8QI       0.017700
     36 H10         25.6380    -8.6460    13.6100 h1         1 8QI       0.002700
     37 H11         24.4580    -8.1150    12.4140 h1         1 8QI       0.002700
     38 H12         22.1920    -8.9980     8.1010 hn         1 8QI       0.480000
     39 H13         22.3930    -7.9010     6.7950 hn         1 8QI       0.480000
     40 H14         22.4520    -5.6750     7.1820 hn         1 8QI       0.281500
     41 H15         19.0800   -12.3230    15.3900 ho         1 8QI       0.530000
     42 O18         23.8470    -7.9520    14.4350 os         1 8QI      -0.445000
     43 O28         21.7460    -3.6110     8.3320 o          1 8QI      -0.604000
@<TRIPOS>BOND
     1     1     9 1   
     2     1    17 1   
     3     1    27 1   
     4     1    28 1   
     5     2     8 1   
     6     2    29 1   
     7     2    30 1   
     8     2    42 1   
     9     3    15 1   
    10     3    16 2   
    11     3    31 1   
    12     4     6 2   
    13     4    11 1   
    14     4    16 1   
    15     5    12 1   
    16     5    13 1   
    17     5    14 2   
    18     6    14 1   
    19     6    15 1   
    20     7     8 1   
    21     7    15 1   
    22     7    32 1   
    23     7    33 1   
    24     8    17 1   
    25     8    34 1   
    26     9    18 1   
    27     9    25 1   
    28     9    35 1   
    29    10    26 1   
    30    10    36 1   
    31    10    37 1   
    32    10    42 1   
    33    11    13 1   
    34    11    43 2   
    35    12    38 1   
    36    12    39 1   
    37    13    40 1   
    38    18    41 1   
    39    19    25 1   
    40    20    25 1   
    41    21    25 1   
    42    22    26 1   
    43    23    26 1   
    44    24    26 1   
@<TRIPOS>SUBSTRUCTURE
     1 8QI         1 TEMP              0 ****  ****    0 ROOT
