@<TRIPOS>MOLECULE
8QI
   43    44     1     0     0
SMALL
abcg2


@<TRIPOS>ATOM
      1 C10         21.5810   -10.4490    12.9510 c3         1 8QI       0.167600
      2 C17         22.6500    -7.4310    14.7070 c3         1 8QI       0.158600
      3 C24         22.4730    -5.6240    11.7110 cc         1 8QI       0.450400
      4 C26         21.9860    -5.9090     9.6690 cd         1 8QI       0.078500
      5 C02         20.2280    -7.6770     8.5870 cd         1 8QI       0.675800
      6 C05         21.2170    -6.8180    10.3720 cc         1 8QI       0.094400
      7 C07         21.0200    -7.4020    12.7920 c3         1 8QI       0.032600
      8 C08         22.1320    -8.2050    13.4980 c3         1 8QI       0.123300
      9 C11         20.8870   -11.6730    13.5050 c3         1 8QI      -0.166700
     10 C19         24.9870    -7.2090    14.3940 c3         1 8QI      -0.181400
     11 C27         21.8740    -5.8690     8.2500 c          1 8QI       0.520500
     12 N01         19.4120    -8.5450     7.9600 nv         1 8QI      -1.051200
     13 N03         20.9450    -6.8200     7.8020 ns         1 8QI      -0.463400
     14 N04         20.3350    -7.7080     9.8900 nc         1 8QI      -0.623100
     15 N06         21.5290    -6.6230    11.6800 na         1 8QI      -0.146500
     16 N25         22.7640    -5.1730    10.5240 nd         1 8QI      -0.651000
     17 O09         21.6580    -9.4460    13.9510 os         1 8QI      -0.453000
     18 O12         19.5630   -11.3590    13.9110 oh         1 8QI      -0.811000
     19 O14         21.6370   -12.7230    11.0380 o          1 8QI      -0.916833
     20 O15         19.2160   -12.9180    11.9250 o          1 8QI      -0.916833
     21 O16         21.0900   -14.3720    12.9410 o          1 8QI      -0.916833
     22 O21         26.5830    -5.1320    13.9270 o          1 8QI      -0.937833
     23 O22         25.5210    -5.3180    16.2730 o          1 8QI      -0.937833
     24 O23         24.0840    -4.6150    14.2640 o          1 8QI      -0.937833
     25 P13         20.7340   -13.0720    12.2220 p5         1 8QI       1.282500
     26 P20         25.3220    -5.3970    14.7580 p5         1 8QI       1.307500
     27 H1          22.5900   -10.7090    12.6080 h1         1 8QI       0.019200
     28 H2          21.0300   -10.0870    12.0710 h1         1 8QI       0.019200
     29 H3          22.6310    -6.3560    14.5080 h1         1 8QI       0.045200
     30 H4          21.9530    -7.6090    15.5340 h1         1 8QI       0.045200
     31 H5          22.9290    -5.2760    12.6370 h5         1 8QI       0.169100
     32 H6          20.5140    -6.7360    13.4950 h1         1 8QI       0.062700
     33 H7          20.2610    -8.0670    12.3830 h1         1 8QI       0.062700
     34 H8          22.9440    -8.3520    12.7680 h1         1 8QI       0.050700
     35 H9          21.4610   -12.0240    14.3760 h1         1 8QI       0.017700
     36 H10         25.8830    -7.7860    14.6480 h1         1 8QI       0.002700
     37 H11         24.8400    -7.3520    13.3100 h1         1 8QI       0.002700
     38 H12         18.7660    -9.0570     8.5360 hn         1 8QI       0.480000
     39 H13         19.1210    -8.3830     7.0100 hn         1 8QI       0.480000
     40 H14         20.8150    -6.8600     6.7990 hn         1 8QI       0.281500
     41 H15         19.0510   -11.8470    13.2170 ho         1 8QI       0.530000
     42 O18         23.9260    -7.8310    15.1230 os         1 8QI      -0.445000
     43 O28         22.4570    -5.1520     7.4540 o          1 8QI      -0.604000
@<TRIPOS>BOND
     1     1     9 1   
     2     1    17 1   
     3     1    27 1   
     4     1    28 1   
     5     2     8 1   
     6     2    29 1   
     7     2    30 1   
     8     2    42 1   
     9     3    15 1   
    10     3    16 2   
    11     3    31 1   
    12     4     6 2   
    13     4    11 1   
    14     4    16 1   
    15     5    12 1   
    16     5    13 1   
    17     5    14 2   
    18     6    14 1   
    19     6    15 1   
    20     7     8 1   
    21     7    15 1   
    22     7    32 1   
    23     7    33 1   
    24     8    17 1   
    25     8    34 1   
    26     9    18 1   
    27     9    25 1   
    28     9    35 1   
    29    10    26 1   
    30    10    36 1   
    31    10    37 1   
    32    10    42 1   
    33    11    13 1   
    34    11    43 2   
    35    12    38 1   
    36    12    39 1   
    37    13    40 1   
    38    18    41 1   
    39    19    25 1   
    40    20    25 1   
    41    21    25 1   
    42    22    26 1   
    43    23    26 1   
    44    24    26 1   
@<TRIPOS>SUBSTRUCTURE
     1 8QI         1 TEMP              0 ****  ****    0 ROOT
