@<TRIPOS>MOLECULE
8QK
   40    43     1     0     0
SMALL
No Charge or Current Charge


@<TRIPOS>ATOM
      1 CAA         -8.4300     2.7010     0.6050 c3         1 8QK       0.147900
      2 CAF         -1.9090    -0.5480     0.0610 ce         1 8QK       0.539800
      3 CAG          0.4780    -3.5190     0.6120 ca         1 8QK      -0.202000
      4 CAH         -4.8640     0.3290     1.1400 ca         1 8QK      -0.071500
      5 CAI         -4.8670    -0.1150    -1.2510 ca         1 8QK      -0.071500
      6 CAJ         -6.0270     1.1090     1.0000 ca         1 8QK      -0.166000
      7 CAK         -6.0290     0.6640    -1.3930 ca         1 8QK      -0.166000
      8 CAL          1.7370    -2.8950     0.4940 ca         1 8QK       0.025000
      9 CAM          2.9260     1.8740    -0.3980 ca         1 8QK      -0.050000
     10 CAQ         -0.7180    -2.7800     0.4760 ca         1 8QK       0.255100
     11 CAR          4.3350     1.8050    -0.3870 ca         1 8QK       0.034000
     12 CAS         -4.2820    -0.2820     0.0150 ca         1 8QK       0.096400
     13 CAT          5.0050     0.5700    -0.1580 ca         1 8QK       0.151100
     14 CAU         -6.6140     1.2790    -0.2730 ca         1 8QK       0.145100
     15 CAV          4.2610    -0.6200     0.0650 ca         1 8QK       0.114000
     16 CAW         -0.6910    -1.3890     0.2160 ca         1 8QK      -0.303900
     17 CAX          2.2210     0.6890    -0.1760 ca         1 8QK       0.042100
     18 CAY          1.7630    -1.5120     0.2360 cp         1 8QK      -0.161000
     19 CAZ          0.5710    -0.7990     0.1040 ca         1 8QK       0.167100
     20 CBA          2.8500    -0.5350     0.0520 cp         1 8QK      -0.018000
     21 OAC          6.3780     0.5360    -0.1530 oh         1 8QK      -0.509100
     22 OAO         -7.7540     2.0310    -0.4740 os         1 8QK      -0.338100
     23 OAP          0.8530     0.5270    -0.1440 os         1 8QK      -0.176200
     24 Cl1          5.2590     3.2820    -0.6650 cl         1 8QK      -0.190000
     25 Cl2          5.0920    -2.1530     0.3500 cl         1 8QK      -0.160000
     26 H1          -9.3080     3.2390     0.2270 h1         1 8QK       0.042367
     27 H2          -8.7720     1.9810     1.3590 h1         1 8QK       0.042367
     28 H3          -7.7670     3.4300     1.0890 h1         1 8QK       0.042367
     29 H4          -1.7750     0.5170    -0.1380 h4         1 8QK      -0.004200
     30 H5           0.4270    -4.5860     0.8110 ha         1 8QK       0.138000
     31 H6          -4.4140     0.1980     2.1210 ha         1 8QK       0.121500
     32 H7          -4.4210    -0.5890    -2.1230 ha         1 8QK       0.121500
     33 H8          -6.4540     1.5690     1.8860 ha         1 8QK       0.125500
     34 H9          -6.4790     0.7920    -2.3740 ha         1 8QK       0.125500
     35 H10          2.6520    -3.4730     0.6000 ha         1 8QK       0.133000
     36 H11          2.4070     2.8120    -0.5730 ha         1 8QK       0.150000
     37 H12         -2.5980    -2.7340     0.4700 ho         1 8QK       0.533000
     38 H13          6.7060     1.4460    -0.3240 ho         1 8QK       0.482000
     39 NAN         -3.1140    -1.0620     0.1590 nf         1 8QK      -0.647100
     40 OAB         -1.9020    -3.4320     0.5990 oh         1 8QK      -0.543100
@<TRIPOS>BOND
     1     1    22 1   
     2     1    26 1   
     3     1    27 1   
     4     1    28 1   
     5     2    16 1   
     6     2    29 1   
     7     2    39 2   
     8     3     8 ar  
     9     3    10 ar  
    10     3    30 1   
    11     4     6 ar  
    12     4    12 ar  
    13     4    31 1   
    14     5     7 ar  
    15     5    12 ar  
    16     5    32 1   
    17     6    14 ar  
    18     6    33 1   
    19     7    14 ar  
    20     7    34 1   
    21     8    18 ar  
    22     8    35 1   
    23     9    11 ar  
    24     9    17 ar  
    25     9    36 1   
    26    10    16 ar  
    27    10    40 1   
    28    11    13 ar  
    29    11    24 1   
    30    12    39 1   
    31    13    15 ar  
    32    13    21 1   
    33    14    22 1   
    34    15    20 ar  
    35    15    25 1   
    36    16    19 ar  
    37    17    20 ar  
    38    17    23 1   
    39    18    19 ar  
    40    18    20 1   
    41    19    23 1   
    42    21    38 1   
    43    37    40 1   
@<TRIPOS>SUBSTRUCTURE
     1 8QK         1 TEMP              0 ****  ****    0 ROOT
