@<TRIPOS>MOLECULE
8QK
   40    43     1     0     0
SMALL
abcg2


@<TRIPOS>ATOM
      1 CAA         -8.0490     2.8940     0.4600 c3         1 8QK       0.147900
      2 CAF         -1.9090    -0.5470    -0.0040 ce         1 8QK       0.539800
      3 CAG          0.4460    -3.5120     0.0630 ca         1 8QK      -0.202000
      4 CAH         -4.3610     0.8950     0.5900 ca         1 8QK      -0.071500
      5 CAI         -5.3730    -0.9210    -0.6010 ca         1 8QK      -0.071500
      6 CAJ         -5.5650     1.5840     0.5720 ca         1 8QK      -0.166000
      7 CAK         -6.5720    -0.2400    -0.6340 ca         1 8QK      -0.166000
      8 CAL          1.6800    -2.8990     0.0840 ca         1 8QK       0.025000
      9 CAM          2.7940     1.9290     0.0680 ca         1 8QK      -0.050000
     10 CAQ         -0.7430    -2.7630     0.0330 ca         1 8QK       0.255100
     11 CAR          4.1780     1.8790     0.0990 ca         1 8QK       0.034000
     12 CAS         -4.2410    -0.3570    -0.0080 ca         1 8QK       0.096400
     13 CAT          4.8960     0.6730     0.1270 ca         1 8QK       0.151100
     14 CAU         -6.6810     1.0250    -0.0490 ca         1 8QK       0.145100
     15 CAV          4.1830    -0.5240     0.1200 ca         1 8QK       0.114000
     16 CAW         -0.7060    -1.3510     0.0240 ca         1 8QK      -0.303900
     17 CAX          2.1420     0.7190     0.0640 ca         1 8QK       0.042100
     18 CAY          1.7510    -1.5040     0.0730 cp         1 8QK      -0.161000
     19 CAZ          0.5630    -0.7770     0.0430 ca         1 8QK       0.167100
     20 CBA          2.7970    -0.5130     0.0880 cp         1 8QK      -0.018000
     21 OAC          6.2300     0.6080     0.1600 oh         1 8QK      -0.509100
     22 OAO         -7.8870     1.6140    -0.1180 os         1 8QK      -0.338100
     23 OAP          0.7900     0.5540     0.0360 os         1 8QK      -0.176200
     24 CL1          5.0780     3.3570     0.1040 cl         1 8QK      -0.190000
     25 CL2          5.0480    -2.0110     0.1540 cl         1 8QK      -0.160000
     26 H1          -9.0820     3.1840     0.2850 h1         1 8QK       0.042367
     27 H2          -7.8660     2.8830     1.5380 h1         1 8QK       0.042367
     28 H3          -7.3920     3.6360    -0.0010 h1         1 8QK       0.042367
     29 H4          -1.7940     0.5370    -0.0220 h4         1 8QK      -0.004200
     30 H5           0.3760    -4.5920     0.0700 ha         1 8QK       0.138000
     31 H6          -3.5210     1.3420     1.1070 ha         1 8QK       0.121500
     32 H7          -5.2990    -1.9030    -1.0530 ha         1 8QK       0.121500
     33 H8          -5.6160     2.5480     1.0600 ha         1 8QK       0.125500
     34 H9          -7.4380    -0.6850    -1.1080 ha         1 8QK       0.125500
     35 H10          2.5750    -3.5040     0.1080 ha         1 8QK       0.133000
     36 H11          2.2650     2.8720     0.0470 ha         1 8QK       0.150000
     37 H12         -2.6310    -2.7410    -0.0120 ho         1 8QK       0.533000
     38 H13          6.6220     1.4910     0.1880 ho         1 8QK       0.482000
     39 NAN         -3.0600    -1.1040    -0.0220 nf         1 8QK      -0.647100
     40 OAB         -1.8960    -3.4160     0.0120 oh         1 8QK      -0.543100
@<TRIPOS>BOND
     1     1    22 1   
     2     1    26 1   
     3     1    27 1   
     4     1    28 1   
     5     2    16 1   
     6     2    29 1   
     7     2    39 2   
     8     3     8 ar  
     9     3    10 ar  
    10     3    30 1   
    11     4     6 ar  
    12     4    12 ar  
    13     4    31 1   
    14     5     7 ar  
    15     5    12 ar  
    16     5    32 1   
    17     6    14 ar  
    18     6    33 1   
    19     7    14 ar  
    20     7    34 1   
    21     8    18 ar  
    22     8    35 1   
    23     9    11 ar  
    24     9    17 ar  
    25     9    36 1   
    26    10    16 ar  
    27    10    40 1   
    28    11    13 ar  
    29    11    24 1   
    30    12    39 1   
    31    13    15 ar  
    32    13    21 1   
    33    14    22 1   
    34    15    20 ar  
    35    15    25 1   
    36    16    19 ar  
    37    17    20 ar  
    38    17    23 1   
    39    18    19 ar  
    40    18    20 1   
    41    19    23 1   
    42    21    38 1   
    43    37    40 1   
@<TRIPOS>SUBSTRUCTURE
     1 8QK         1 TEMP              0 ****  ****    0 ROOT
