@<TRIPOS>MOLECULE
8QL
   51    54     1     0     0
SMALL
No Charge or Current Charge


@<TRIPOS>ATOM
      1 C4           1.2800    -1.1300     1.9250 c3         1 8QL      -0.081100
      2 C5           1.9610     0.6130     0.2610 c2         1 8QL      -0.099400
      3 C6           1.2320     1.8400     0.8450 c6         1 8QL       0.209500
      4 C7          -0.1890     1.9670     0.2650 c6         1 8QL      -0.107400
      5 C8          -1.0110     0.6840     0.5310 c6         1 8QL      -0.041700
      6 C10         -1.1660    -1.8600     0.1060 c6         1 8QL      -0.069400
      7 C13         -3.6600    -0.7680     1.6970 c3         1 8QL      -0.078100
      8 C15         -2.6730     1.1850    -1.4860 c5         1 8QL      -0.075400
      9 C17         -4.6240    -0.0060    -0.5450 c5         1 8QL      -0.073400
     10 O1           1.9370     3.0640     0.6020 oh         1 8QL      -0.658000
     11 C18          3.1940     0.6980    -0.2870 c2         1 8QL      -0.233200
     12 C            3.9740    -0.4710    -0.8570 c6         1 8QL       0.206500
     13 O            5.3550    -0.3310    -0.5250 oh         1 8QL      -0.659000
     14 C14         -2.4850     0.8400     0.0310 c5         1 8QL      -0.052700
     15 C16         -4.1010     0.6680    -1.8450 c5         1 8QL      -0.078400
     16 C12         -3.3340    -0.4540     0.2070 c5         1 8QL      -0.047000
     17 C11         -2.6140    -1.6890    -0.4290 c6         1 8QL      -0.064400
     18 C9          -0.2970    -0.5690    -0.0910 c6         1 8QL      -0.047700
     19 C3           1.1990    -0.7310     0.4090 c6         1 8QL       0.000200
     20 C2           1.9000    -1.8490    -0.4430 c6         1 8QL      -0.069400
     21 C1           3.4390    -1.8150    -0.3280 c6         1 8QL      -0.073400
     22 H1           0.9190    -2.1500     2.0980 hc         1 8QL       0.035367
     23 H2           2.3110    -1.0900     2.2950 hc         1 8QL       0.035367
     24 H3           0.6940    -0.4670     2.5690 hc         1 8QL       0.035367
     25 H4           1.1430     1.6970     1.9320 h1         1 8QL       0.035700
     26 H5          -0.6970     2.8310     0.7130 hc         1 8QL       0.047200
     27 H6          -0.1250     2.1610    -0.8150 hc         1 8QL       0.047200
     28 H7          -1.0560     0.5530     1.6200 hc         1 8QL       0.047700
     29 H8          -1.1980    -2.1480     1.1630 hc         1 8QL       0.040200
     30 H9          -0.7130    -2.7090    -0.4210 hc         1 8QL       0.040200
     31 H10         -4.3120    -1.6450     1.7820 hc         1 8QL       0.033033
     32 H11         -2.7630    -0.9640     2.2940 hc         1 8QL       0.033033
     33 H12         -4.1800     0.0710     2.1740 hc         1 8QL       0.033033
     34 H13         -2.5780     2.2620    -1.6650 hc         1 8QL       0.041700
     35 H14         -1.9270     0.7020    -2.1260 hc         1 8QL       0.041700
     36 H15         -5.2010     0.7140     0.0490 hc         1 8QL       0.042700
     37 H16         -5.2960    -0.8450    -0.7570 hc         1 8QL       0.042700
     38 H17          1.4130     3.7750     1.0300 ho         1 8QL       0.444000
     39 H18          3.6960     1.6610    -0.3510 ha         1 8QL       0.191000
     40 H19          3.8510    -0.4610    -1.9510 h1         1 8QL       0.033700
     41 H20          5.6730     0.4710    -0.9930 ho         1 8QL       0.442000
     42 H21         -2.9090     1.6500     0.6370 hc         1 8QL       0.044700
     43 H22         -4.7620     1.4810    -2.1670 hc         1 8QL       0.039700
     44 H23         -4.0590    -0.0470    -2.6740 hc         1 8QL       0.039700
     45 H24         -2.5740    -1.6010    -1.5230 hc         1 8QL       0.039700
     46 H25         -3.1920    -2.6020    -0.2310 hc         1 8QL       0.039700
     47 H26         -0.2360    -0.3950    -1.1730 hc         1 8QL       0.049700
     48 H27          1.5450    -2.8440    -0.1430 hc         1 8QL       0.042700
     49 H28          1.6310    -1.7390    -1.5030 hc         1 8QL       0.042700
     50 H29          3.8770    -2.6400    -0.9060 hc         1 8QL       0.055200
     51 H30          3.7500    -1.9680     0.7140 hc         1 8QL       0.055200
@<TRIPOS>BOND
     1     1    19 1   
     2     1    22 1   
     3     1    23 1   
     4     1    24 1   
     5     2     3 1   
     6     2    11 2   
     7     2    19 1   
     8     3     4 1   
     9     3    10 1   
    10     3    25 1   
    11     4     5 1   
    12     4    26 1   
    13     4    27 1   
    14     5    14 1   
    15     5    18 1   
    16     5    28 1   
    17     6    17 1   
    18     6    18 1   
    19     6    29 1   
    20     6    30 1   
    21     7    16 1   
    22     7    31 1   
    23     7    32 1   
    24     7    33 1   
    25     8    14 1   
    26     8    15 1   
    27     8    34 1   
    28     8    35 1   
    29     9    15 1   
    30     9    16 1   
    31     9    36 1   
    32     9    37 1   
    33    10    38 1   
    34    11    12 1   
    35    11    39 1   
    36    12    13 1   
    37    12    21 1   
    38    12    40 1   
    39    13    41 1   
    40    14    16 1   
    41    14    42 1   
    42    15    43 1   
    43    15    44 1   
    44    16    17 1   
    45    17    45 1   
    46    17    46 1   
    47    18    19 1   
    48    18    47 1   
    49    19    20 1   
    50    20    21 1   
    51    20    48 1   
    52    20    49 1   
    53    21    50 1   
    54    21    51 1   
@<TRIPOS>SUBSTRUCTURE
     1 8QL         1 TEMP              0 ****  ****    0 ROOT
