@<TRIPOS>MOLECULE
8QL
   51    54     1     0     0
SMALL
bcc


@<TRIPOS>ATOM
      1 C4           1.2430    -1.1360     1.9210 c3         1 8QL      -0.081100
      2 C5           1.9050     0.5990     0.2600 c2         1 8QL      -0.099400
      3 C6           1.2240     1.7980     0.8660 c6         1 8QL       0.186300
      4 C7          -0.1890     1.9270     0.3120 c6         1 8QL      -0.107400
      5 C8          -0.9960     0.6600     0.5590 c6         1 8QL      -0.041700
      6 C10         -1.1470    -1.8160     0.1850 c6         1 8QL      -0.069400
      7 C13         -3.6960    -0.7130     1.6680 c3         1 8QL      -0.078100
      8 C15         -2.5910     1.2010    -1.4250 c5         1 8QL      -0.075400
      9 C17         -4.5190    -0.1000    -0.6400 c5         1 8QL      -0.073400
     10 O1           1.9860     2.9610     0.6400 oh         1 8QL      -0.595800
     11 C18          3.0750     0.7030    -0.3680 c2         1 8QL      -0.183200
     12 C            3.8500    -0.4480    -0.9460 c6         1 8QL       0.183300
     13 O            5.2360    -0.3160    -0.6790 oh         1 8QL      -0.596800
     14 C14         -2.4340     0.8170     0.0590 c5         1 8QL      -0.052700
     15 C16         -3.9570     0.6330    -1.8670 c5         1 8QL      -0.078400
     16 C12         -3.2990    -0.4450     0.2210 c5         1 8QL      -0.047000
     17 C11         -2.5560    -1.6490    -0.3730 c6         1 8QL      -0.064400
     18 C9          -0.2980    -0.5640    -0.0420 c6         1 8QL      -0.047700
     19 C3           1.1730    -0.7250     0.4400 c6         1 8QL       0.000200
     20 C2           1.8520    -1.8060    -0.4180 c6         1 8QL      -0.069400
     21 C1           3.3700    -1.7570    -0.3560 c6         1 8QL      -0.073400
     22 H1           0.8620    -2.1480     2.0670 hc         1 8QL       0.035367
     23 H2           2.2750    -1.1250     2.2750 hc         1 8QL       0.035367
     24 H3           0.6690    -0.4770     2.5720 hc         1 8QL       0.035367
     25 H4           1.1420     1.6150     1.9500 h1         1 8QL       0.035700
     26 H5          -0.6920     2.7810     0.7780 hc         1 8QL       0.047200
     27 H6          -0.1300     2.1350    -0.7620 hc         1 8QL       0.047200
     28 H7          -1.0560     0.5140     1.6470 hc         1 8QL       0.047700
     29 H8          -1.2020    -2.0380     1.2550 hc         1 8QL       0.040200
     30 H9          -0.6780    -2.6860    -0.2810 hc         1 8QL       0.040200
     31 H10         -4.3950    -1.5500     1.7300 hc         1 8QL       0.033033
     32 H11         -2.8430    -0.9570     2.3030 hc         1 8QL       0.033033
     33 H12         -4.1880     0.1600     2.1030 hc         1 8QL       0.033033
     34 H13         -2.5330     2.2820    -1.5600 hc         1 8QL       0.041700
     35 H14         -1.7890     0.7740    -2.0320 hc         1 8QL       0.041700
     36 H15         -5.1810     0.5630    -0.0750 hc         1 8QL       0.042700
     37 H16         -5.1050    -0.9850    -0.9050 hc         1 8QL       0.042700
     38 H17          1.5550     3.6860     1.1030 ho         1 8QL       0.405000
     39 H18          3.5330     1.6800    -0.4860 ha         1 8QL       0.141000
     40 H19          3.6860    -0.4760    -2.0350 h1         1 8QL       0.033700
     41 H20          5.5550     0.4770    -1.1210 ho         1 8QL       0.403000
     42 H21         -2.8990     1.6130     0.6570 hc         1 8QL       0.044700
     43 H22         -4.6340     1.4170    -2.2100 hc         1 8QL       0.039700
     44 H23         -3.8310    -0.0530    -2.7060 hc         1 8QL       0.039700
     45 H24         -2.4940    -1.5460    -1.4620 hc         1 8QL       0.039700
     46 H25         -3.1390    -2.5580    -0.1900 hc         1 8QL       0.039700
     47 H26         -0.2300    -0.4040    -1.1270 hc         1 8QL       0.049700
     48 H27          1.5050    -2.7930    -0.1080 hc         1 8QL       0.042700
     49 H28          1.5380    -1.6850    -1.4620 hc         1 8QL       0.042700
     50 H29          3.8000    -2.6030    -0.8970 hc         1 8QL       0.055200
     51 H30          3.7100    -1.8330     0.6810 hc         1 8QL       0.055200
@<TRIPOS>BOND
     1     1    19 1   
     2     1    22 1   
     3     1    23 1   
     4     1    24 1   
     5     2     3 1   
     6     2    11 2   
     7     2    19 1   
     8     3     4 1   
     9     3    10 1   
    10     3    25 1   
    11     4     5 1   
    12     4    26 1   
    13     4    27 1   
    14     5    14 1   
    15     5    18 1   
    16     5    28 1   
    17     6    17 1   
    18     6    18 1   
    19     6    29 1   
    20     6    30 1   
    21     7    16 1   
    22     7    31 1   
    23     7    32 1   
    24     7    33 1   
    25     8    14 1   
    26     8    15 1   
    27     8    34 1   
    28     8    35 1   
    29     9    15 1   
    30     9    16 1   
    31     9    36 1   
    32     9    37 1   
    33    10    38 1   
    34    11    12 1   
    35    11    39 1   
    36    12    13 1   
    37    12    21 1   
    38    12    40 1   
    39    13    41 1   
    40    14    16 1   
    41    14    42 1   
    42    15    43 1   
    43    15    44 1   
    44    16    17 1   
    45    17    45 1   
    46    17    46 1   
    47    18    19 1   
    48    18    47 1   
    49    19    20 1   
    50    20    21 1   
    51    20    48 1   
    52    20    49 1   
    53    21    50 1   
    54    21    51 1   
@<TRIPOS>SUBSTRUCTURE
     1 8QL         1 TEMP              0 ****  ****    0 ROOT
