@<TRIPOS>MOLECULE
8QM
   21    22     1     0     0
SMALL
No Charge or Current Charge


@<TRIPOS>ATOM
      1 C10         -2.9250    -0.5360    -0.0590 cx         1 8QM      -0.051400
      2 O01          3.6200    -0.8640    -0.1710 o          1 8QM      -0.722500
      3 O03          3.3900     1.2420     0.1780 o          1 8QM      -0.722500
      4 C04          1.4080    -0.0370    -0.0150 ca         1 8QM      -0.127600
      5 C05          0.8160    -1.3050    -0.2190 ca         1 8QM      -0.089500
      6 C06         -0.5820    -1.4530    -0.2310 ca         1 8QM      -0.136500
      7 C07         -1.4260    -0.3430    -0.0410 ca         1 8QM      -0.091300
      8 C08         -0.8410     0.9230     0.1630 ca         1 8QM      -0.136500
      9 C09          0.5560     1.0750     0.1750 ca         1 8QM      -0.089500
     10 C11         -3.8510     0.2500     0.8430 cx         1 8QM      -0.139900
     11 C12         -3.8640     0.4950    -0.6460 cx         1 8QM      -0.139900
     12 H1          -3.2020    -1.5740    -0.2270 hc         1 8QM       0.064700
     13 H3           1.4400    -2.1840    -0.3690 ha         1 8QM       0.125000
     14 H4          -1.0070    -2.4410    -0.3900 ha         1 8QM       0.082500
     15 H5          -1.4640     1.8010     0.3130 ha         1 8QM       0.082500
     16 H6           0.9760     2.0660     0.3350 ha         1 8QM       0.125000
     17 H7          -4.6970    -0.2770     1.2770 hc         1 8QM       0.063200
     18 H8          -3.4210     1.0180     1.4810 hc         1 8QM       0.063200
     19 H9          -3.4430     1.4280    -1.0120 hc         1 8QM       0.063200
     20 H10         -4.7190     0.1330    -1.2110 hc         1 8QM       0.063200
     21 C02          2.9210     0.1260    -0.0020 c          1 8QM       0.711600
@<TRIPOS>BOND
     1     1     7 1   
     2     1    10 1   
     3     1    11 1   
     4     1    12 1   
     5     2    21 1   
     6     3    21 1   
     7     4     5 ar  
     8     4     9 ar  
     9     4    21 1   
    10     5     6 ar  
    11     5    13 1   
    12     6     7 ar  
    13     6    14 1   
    14     7     8 ar  
    15     8     9 ar  
    16     8    15 1   
    17     9    16 1   
    18    10    11 1   
    19    10    17 1   
    20    10    18 1   
    21    11    19 1   
    22    11    20 1   
@<TRIPOS>SUBSTRUCTURE
     1 8QM         1 TEMP              0 ****  ****    0 ROOT
