@<TRIPOS>MOLECULE
8QM
   21    22     1     0     0
SMALL
bcc


@<TRIPOS>ATOM
      1 C10         -2.9050    -0.5480    -0.0540 cx         1 8QM      -0.051400
      2 O01          3.5690    -0.8940    -0.1810 o          1 8QM      -0.827800
      3 O03          3.3180     1.2900     0.1770 o          1 8QM      -0.827800
      4 C04          1.3760    -0.0370    -0.0140 ca         1 8QM      -0.127600
      5 C05          0.7930    -1.2840    -0.2190 ca         1 8QM      -0.107500
      6 C06         -0.5860    -1.4380    -0.2290 ca         1 8QM      -0.154500
      7 C07         -1.4360    -0.3500    -0.0350 ca         1 8QM      -0.091300
      8 C08         -0.8500     0.9010     0.1710 ca         1 8QM      -0.154500
      9 C09          0.5270     1.0510     0.1810 ca         1 8QM      -0.107500
     10 C11         -3.8150     0.2610     0.8310 cx         1 8QM      -0.139900
     11 C12         -3.8230     0.4900    -0.6420 cx         1 8QM      -0.139900
     12 H1          -3.2050    -1.5780    -0.2140 hc         1 8QM       0.064700
     13 H3           1.4250    -2.1480    -0.3750 ha         1 8QM       0.143000
     14 H4          -1.0100    -2.4220    -0.3940 ha         1 8QM       0.100500
     15 H5          -1.4730     1.7760     0.3240 ha         1 8QM       0.100500
     16 H6           0.9530     2.0320     0.3440 ha         1 8QM       0.143000
     17 H7          -4.6580    -0.2470     1.2790 hc         1 8QM       0.063200
     18 H8          -3.3610     1.0140     1.4640 hc         1 8QM       0.063200
     19 H9          -3.3710     1.3980    -1.0220 hc         1 8QM       0.063200
     20 H10         -4.6720     0.1400    -1.2150 hc         1 8QM       0.063200
     21 C02          2.8870     0.1350    -0.0050 c          1 8QM       0.922200
@<TRIPOS>BOND
     1     1     7 1   
     2     1    10 1   
     3     1    11 1   
     4     1    12 1   
     5     2    21 1   
     6     3    21 1   
     7     4     5 ar  
     8     4     9 ar  
     9     4    21 1   
    10     5     6 ar  
    11     5    13 1   
    12     6     7 ar  
    13     6    14 1   
    14     7     8 ar  
    15     8     9 ar  
    16     8    15 1   
    17     9    16 1   
    18    10    11 1   
    19    10    17 1   
    20    10    18 1   
    21    11    19 1   
    22    11    20 1   
@<TRIPOS>SUBSTRUCTURE
     1 8QM         1 TEMP              0 ****  ****    0 ROOT
