@<TRIPOS>MOLECULE
8QO
   29    30     1     0     0
SMALL
bcc


@<TRIPOS>ATOM
      1 C6           0.7550    -1.2120    -0.0430 ca         1 8QO      -0.019000
      2 C11          2.1360    -1.2520    -0.0380 ca         1 8QO      -0.276000
      3 C9           2.1610     1.1670    -0.0400 ca         1 8QO      -0.242000
      4 C2           0.0440    -0.0140    -0.0380 ca         1 8QO      -0.305900
      5 C13          2.8440    -0.0450    -0.0320 ca         1 8QO       0.205100
      6 C5           0.7720     1.2000    -0.0480 ca         1 8QO       0.255100
      7 C1          -1.4130     0.0290    -0.0250 ce         1 8QO       0.679800
      8 C7          -3.4770     0.8370    -0.0820 c5         1 8QO       0.113800
      9 C8          -3.5680    -0.6600     0.2780 c5         1 8QO       0.171500
     10 C12         -4.5990    -1.4330    -0.5180 c3         1 8QO      -0.087100
     11 C15          4.9400    -1.1580     0.0240 c3         1 8QO       0.125700
     12 N3          -2.0560     1.1460    -0.0710 n2         1 8QO      -0.722900
     13 N4          -2.1960    -1.0870    -0.0000 nu         1 8QO      -0.837200
     14 O10          0.1670     2.3840    -0.0650 oh         1 8QO      -0.519100
     15 O14          4.1820     0.0370    -0.0250 os         1 8QO      -0.312900
     16 H1           0.2220    -2.1540    -0.0560 ha         1 8QO       0.123000
     17 H2           2.6380    -2.2080    -0.0420 ha         1 8QO       0.138000
     18 H3           2.7170     2.0970    -0.0420 ha         1 8QO       0.163000
     19 H4          -3.8900     1.0260    -1.0800 h1         1 8QO       0.063200
     20 H5          -4.0270     1.4670     0.6170 h1         1 8QO       0.063200
     21 H6          -3.7740    -0.7770     1.3480 h1         1 8QO       0.039700
     22 H7          -4.4330    -1.3110    -1.5900 hc         1 8QO       0.044367
     23 H8          -4.5670    -2.4970    -0.2840 hc         1 8QO       0.044367
     24 H9          -5.6020    -1.0750    -0.2860 hc         1 8QO       0.044367
     25 H10          4.7220    -1.7410     0.9210 h1         1 8QO       0.042700
     26 H11          4.7710    -1.7850    -0.8550 h1         1 8QO       0.042700
     27 H12          5.9840    -0.8580     0.0440 h1         1 8QO       0.042700
     28 H13         -1.8590    -1.9170     0.4630 hn         1 8QO       0.421800
     29 H14         -0.8250     2.2160    -0.0860 ho         1 8QO       0.498000
@<TRIPOS>BOND
     1     1     2 ar  
     2     1     4 ar  
     3     1    16 1   
     4     2     5 ar  
     5     2    17 1   
     6     3     5 ar  
     7     3     6 ar  
     8     3    18 1   
     9     4     6 ar  
    10     4     7 1   
    11     5    15 1   
    12     6    14 1   
    13     7    12 2   
    14     7    13 1   
    15     8     9 1   
    16     8    12 1   
    17     8    19 1   
    18     8    20 1   
    19     9    10 1   
    20     9    13 1   
    21     9    21 1   
    22    10    22 1   
    23    10    23 1   
    24    10    24 1   
    25    11    15 1   
    26    11    25 1   
    27    11    26 1   
    28    11    27 1   
    29    13    28 1   
    30    14    29 1   
@<TRIPOS>SUBSTRUCTURE
     1 8QO         1 TEMP              0 ****  ****    0 ROOT
