@<TRIPOS>MOLECULE
8QO
   29    30     1     0     0
SMALL
No Charge or Current Charge


@<TRIPOS>ATOM
      1 C6           0.7190    -1.1460    -0.4620 ca         1 8QO      -0.001000
      2 C11          2.1100    -1.2030    -0.2790 ca         1 8QO      -0.258000
      3 C9           2.1340     1.1520     0.2800 ca         1 8QO      -0.224000
      4 C2           0.0110     0.0610    -0.2570 ca         1 8QO      -0.305900
      5 C13          2.8230    -0.0510     0.1000 ca         1 8QO       0.205100
      6 C5           0.7480     1.2130     0.0960 ca         1 8QO       0.255100
      7 C1          -1.4650     0.1030    -0.4740 ce         1 8QO       0.679800
      8 C7          -3.5330     0.8290    -0.3870 c5         1 8QO       0.113800
      9 C8          -3.4760    -0.5710     0.2950 c5         1 8QO       0.171500
     10 C12         -4.6300    -1.5200    -0.0820 c3         1 8QO      -0.087100
     11 C15          4.9870    -1.2340     0.1310 c3         1 8QO       0.148900
     12 N3          -2.1080     1.2170    -0.5350 n2         1 8QO      -0.722900
     13 N4          -2.1860    -1.0480    -0.2360 nu         1 8QO      -0.892400
     14 O10          0.1280     2.4080     0.2700 oh         1 8QO      -0.558100
     15 O14          4.1880    -0.0490     0.2940 os         1 8QO      -0.336100
     16 H1           0.1980    -2.0500    -0.7750 ha         1 8QO       0.105000
     17 H2           2.6150    -2.1510    -0.4410 ha         1 8QO       0.120000
     18 H3           2.6800     2.0470     0.5620 ha         1 8QO       0.145000
     19 H4          -4.0100     0.7740    -1.3760 h1         1 8QO       0.063200
     20 H5          -4.0920     1.5540     0.2210 h1         1 8QO       0.063200
     21 H6          -3.4410    -0.4690     1.3900 h1         1 8QO       0.039700
     22 H7          -4.6930    -1.6610    -1.1680 hc         1 8QO       0.044367
     23 H8          -4.4950    -2.5050     0.3790 hc         1 8QO       0.044367
     24 H9          -5.5910    -1.1190     0.2610 hc         1 8QO       0.044367
     25 H10          4.6640    -2.0200     0.8250 h1         1 8QO       0.042700
     26 H11          4.9120    -1.6170    -0.8950 h1         1 8QO       0.042700
     27 H12          6.0420    -1.0120     0.3350 h1         1 8QO       0.042700
     28 H13         -1.6490    -1.7490     0.2670 hn         1 8QO       0.477000
     29 H14         -0.8190     2.2390     0.0100 ho         1 8QO       0.537000
@<TRIPOS>BOND
     1     1     2 ar  
     2     1     4 ar  
     3     1    16 1   
     4     2     5 ar  
     5     2    17 1   
     6     3     5 ar  
     7     3     6 ar  
     8     3    18 1   
     9     4     6 ar  
    10     4     7 1   
    11     5    15 1   
    12     6    14 1   
    13     7    12 2   
    14     7    13 1   
    15     8     9 1   
    16     8    12 1   
    17     8    19 1   
    18     8    20 1   
    19     9    10 1   
    20     9    13 1   
    21     9    21 1   
    22    10    22 1   
    23    10    23 1   
    24    10    24 1   
    25    11    15 1   
    26    11    25 1   
    27    11    26 1   
    28    11    27 1   
    29    13    28 1   
    30    14    29 1   
@<TRIPOS>SUBSTRUCTURE
     1 8QO         1 TEMP              0 ****  ****    0 ROOT
