@<TRIPOS>MOLECULE
8QP
   41    43     1     0     0
SMALL
No Charge or Current Charge


@<TRIPOS>ATOM
      1 C2          -3.0170    -0.6500    -0.4220 ca         1 8QP      -0.078300
      2 C3          -4.1740     0.1440    -0.2410 ca         1 8QP      -0.123000
      3 C4          -4.0650     1.5160     0.0870 ca         1 8QP      -0.157000
      4 C5          -2.7970     2.1130     0.2380 ca         1 8QP      -0.079000
      5 C6          -1.6690     1.3040     0.0540 ca         1 8QP      -0.086800
      6 C7          -1.7660    -0.0230    -0.2630 ca         1 8QP      -0.044200
      7 C9          -0.2770     1.6290     0.1470 cc         1 8QP      -0.193400
      8 C15          2.5080    -0.4230     1.0430 c3         1 8QP      -0.227400
      9 O1           1.2350    -2.4130     1.2350 o          1 8QP      -0.728000
     10 C16          2.3110    -1.9370     0.9090 c          1 8QP       0.728000
     11 O2           3.2310    -2.6050     0.4630 o          1 8QP      -0.728000
     12 C12          1.9500     0.3800    -0.1810 c6         1 8QP       0.260200
     13 C13          2.4410    -0.1920    -1.5570 c3         1 8QP      -0.056400
     14 C14          3.9650    -0.1510    -1.8270 c3         1 8QP      -0.080100
     15 C8           0.4210     0.4640    -0.1530 cd         1 8QP      -0.061300
     16 N           -0.5030    -0.5850    -0.3820 na         1 8QP      -0.197700
     17 C1          -3.1380    -2.1290    -0.7710 c3         1 8QP      -0.022100
     18 C           -3.0310    -3.0330     0.4720 c3         1 8QP      -0.090100
     19 O            2.5010     1.7280    -0.1100 os         1 8QP      -0.477000
     20 C11          1.9010     2.6210     0.8620 c6         1 8QP       0.168600
     21 C10          0.4250     2.9170     0.4940 c6         1 8QP      -0.022200
     22 H1          -5.1600    -0.3010    -0.3510 ha         1 8QP       0.091000
     23 H2          -4.9630     2.1130     0.2230 ha         1 8QP       0.089000
     24 H3          -2.6980     3.1660     0.4910 ha         1 8QP       0.096000
     25 H4           1.9350    -0.0800     1.9120 hc         1 8QP       0.042700
     26 H5           3.5790    -0.2020     1.1220 hc         1 8QP       0.042700
     27 H7           2.0940    -1.2230    -1.6850 hc         1 8QP       0.049200
     28 H8           1.9520     0.3730    -2.3600 hc         1 8QP       0.049200
     29 H9           4.1860    -0.5830    -2.8100 hc         1 8QP       0.029367
     30 H10          4.3380     0.8800    -1.8220 hc         1 8QP       0.029367
     31 H11          4.5210    -0.7210    -1.0750 hc         1 8QP       0.029367
     32 H12         -0.2800    -1.5690    -0.4940 hn         1 8QP       0.429000
     33 H13         -4.0980    -2.3240    -1.2660 hc         1 8QP       0.037200
     34 H14         -2.3640    -2.4170    -1.4920 hc         1 8QP       0.037200
     35 H15         -2.0640    -2.8950     0.9710 hc         1 8QP       0.037033
     36 H16         -3.8260    -2.7970     1.1890 hc         1 8QP       0.037033
     37 H17         -3.1250    -4.0880     0.1880 hc         1 8QP       0.037033
     38 H18          1.9600     2.1710     1.8620 h1         1 8QP       0.032700
     39 H19          2.4720     3.5610     0.8840 h1         1 8QP       0.032700
     40 H20          0.3910     3.6100    -0.3570 hc         1 8QP       0.034200
     41 H21         -0.0700     3.4250     1.3320 hc         1 8QP       0.034200
@<TRIPOS>BOND
     1     1     2 ar  
     2     1     6 ar  
     3     1    17 1   
     4     2     3 ar  
     5     2    22 1   
     6     3     4 ar  
     7     3    23 1   
     8     4     5 ar  
     9     4    24 1   
    10     5     6 ar  
    11     5     7 1   
    12     6    16 1   
    13     7    15 2   
    14     7    21 1   
    15     8    10 1   
    16     8    12 1   
    17     8    25 1   
    18     8    26 1   
    19     9    10 1   
    20    10    11 1   
    21    12    13 1   
    22    12    15 1   
    23    12    19 1   
    24    13    14 1   
    25    13    27 1   
    26    13    28 1   
    27    14    29 1   
    28    14    30 1   
    29    14    31 1   
    30    15    16 1   
    31    16    32 1   
    32    17    18 1   
    33    17    33 1   
    34    17    34 1   
    35    18    35 1   
    36    18    36 1   
    37    18    37 1   
    38    19    20 1   
    39    20    21 1   
    40    20    38 1   
    41    20    39 1   
    42    21    40 1   
    43    21    41 1   
@<TRIPOS>SUBSTRUCTURE
     1 8QP         1 TEMP              0 ****  ****    0 ROOT
