@<TRIPOS>MOLECULE
8QP
   41    43     1     0     0
SMALL
abcg2


@<TRIPOS>ATOM
      1 C2          -2.9760    -0.6550    -0.3940 ca         1 8QP      -0.078300
      2 C3          -4.1200     0.1120    -0.2320 ca         1 8QP      -0.123000
      3 C4          -4.0640     1.4900     0.0360 ca         1 8QP      -0.157000
      4 C5          -2.8550     2.1470     0.1510 ca         1 8QP      -0.079000
      5 C6          -1.6750     1.4100    -0.0050 ca         1 8QP      -0.086800
      6 C7          -1.7580     0.0220    -0.2780 ca         1 8QP      -0.044200
      7 C9          -0.2820     1.7290     0.0580 cc         1 8QP      -0.193400
      8 C15          2.3750    -0.5730     0.8870 c3         1 8QP      -0.227400
      9 O1           1.1430    -2.4990     0.0810 o          1 8QP      -0.728000
     10 C16          2.1590    -2.0890     0.7000 c          1 8QP       0.728000
     11 O2           3.0140    -2.8220     1.2210 o          1 8QP      -0.728000
     12 C12          1.8790     0.4000    -0.2030 c6         1 8QP       0.260200
     13 C13          2.3400    -0.0180    -1.6080 c3         1 8QP      -0.056400
     14 C14          3.8440    -0.2170    -1.7510 c3         1 8QP      -0.080100
     15 C8           0.3900     0.5640    -0.1810 cd         1 8QP      -0.061300
     16 N           -0.4850    -0.4580    -0.3990 na         1 8QP      -0.197700
     17 C1          -3.0270    -2.1350    -0.6440 c3         1 8QP      -0.022100
     18 C           -2.7010    -2.9600     0.6030 c3         1 8QP      -0.090100
     19 O            2.4640     1.6830     0.0160 os         1 8QP      -0.477000
     20 C11          1.8190     2.5510     0.9260 c6         1 8QP       0.168600
     21 C10          0.4470     2.9770     0.4180 c6         1 8QP      -0.022200
     22 H1          -5.0880    -0.3690    -0.3200 ha         1 8QP       0.091000
     23 H2          -4.9890     2.0410     0.1530 ha         1 8QP       0.089000
     24 H3          -2.8220     3.2100     0.3560 ha         1 8QP       0.096000
     25 H4           1.9070    -0.2950     1.8400 hc         1 8QP       0.042700
     26 H5           3.4450    -0.4030     1.0240 hc         1 8QP       0.042700
     27 H7           1.8250    -0.9370    -1.8860 hc         1 8QP       0.049200
     28 H8           2.0020     0.7500    -2.3090 hc         1 8QP       0.049200
     29 H9           4.0910    -0.4580    -2.7850 hc         1 8QP       0.029367
     30 H10          4.4020     0.6770    -1.4780 hc         1 8QP       0.029367
     31 H11          4.2070    -1.0400    -1.1330 hc         1 8QP       0.029367
     32 H12         -0.1270    -1.4240    -0.3550 hn         1 8QP       0.429000
     33 H13         -4.0240    -2.4040    -1.0020 hc         1 8QP       0.037200
     34 H14         -2.3310    -2.4030    -1.4440 hc         1 8QP       0.037200
     35 H15         -1.6920    -2.7640     0.9660 hc         1 8QP       0.037033
     36 H16         -3.3970    -2.7320     1.4110 hc         1 8QP       0.037033
     37 H17         -2.7730    -4.0270     0.3900 hc         1 8QP       0.037033
     38 H18          1.7110     2.0880     1.9150 h1         1 8QP       0.032700
     39 H19          2.4810     3.4110     1.0410 h1         1 8QP       0.032700
     40 H20          0.5470     3.6630    -0.4300 hc         1 8QP       0.034200
     41 H21         -0.0730     3.5310     1.2050 hc         1 8QP       0.034200
@<TRIPOS>BOND
     1     1     2 ar  
     2     1     6 ar  
     3     1    17 1   
     4     2     3 ar  
     5     2    22 1   
     6     3     4 ar  
     7     3    23 1   
     8     4     5 ar  
     9     4    24 1   
    10     5     6 ar  
    11     5     7 1   
    12     6    16 1   
    13     7    15 2   
    14     7    21 1   
    15     8    10 1   
    16     8    12 1   
    17     8    25 1   
    18     8    26 1   
    19     9    10 1   
    20    10    11 1   
    21    12    13 1   
    22    12    15 1   
    23    12    19 1   
    24    13    14 1   
    25    13    27 1   
    26    13    28 1   
    27    14    29 1   
    28    14    30 1   
    29    14    31 1   
    30    15    16 1   
    31    16    32 1   
    32    17    18 1   
    33    17    33 1   
    34    17    34 1   
    35    18    35 1   
    36    18    36 1   
    37    18    37 1   
    38    19    20 1   
    39    20    21 1   
    40    20    38 1   
    41    20    39 1   
    42    21    40 1   
    43    21    41 1   
@<TRIPOS>SUBSTRUCTURE
     1 8QP         1 TEMP              0 ****  ****    0 ROOT
