@<TRIPOS>MOLECULE
8QQ
   72    76     1     0     0
SMALL
abcg2


@<TRIPOS>ATOM
      1 N            4.1260     0.8230    -1.0500 nc         1 8QQ      -0.565100
      2 C            3.6150     0.8930     1.3350 cc         1 8QQ       0.146500
      3 O            1.4770     1.6940     1.9840 o          1 8QQ      -0.511000
      4 C17         -7.4420     1.4500    -0.0480 c3         1 8QQ       0.296000
      5 F           -7.0130     2.7160     0.0660 f          1 8QQ      -0.117000
      6 F1          -8.5510     1.3500     0.6960 f          1 8QQ      -0.117000
      7 C15         -6.3880     0.4500     0.3840 c3         1 8QQ      -0.063400
      8 C16         -6.9700    -0.9470     0.3880 ca         1 8QQ      -0.088300
      9 C28         -7.1520    -1.6720    -0.7860 ca         1 8QQ      -0.081000
     10 C27         -7.7100    -2.9430    -0.7530 ca         1 8QQ      -0.111500
     11 C26         -8.0980    -3.5060     0.4550 ca         1 8QQ      -0.098000
     12 C25         -7.9210    -2.7900     1.6310 ca         1 8QQ      -0.111500
     13 C24         -7.3620    -1.5210     1.5940 ca         1 8QQ      -0.081000
     14 C14         -5.1300     0.5840    -0.4720 c3         1 8QQ      -0.154400
     15 O1          -4.0830    -0.7500     1.2060 o          1 8QQ      -0.593100
     16 N4          -2.8880    -0.3830    -0.6730 n          1 8QQ      -0.405800
     17 C10         -2.6120     0.3810    -1.8780 c6         1 8QQ       0.097500
     18 C9          -1.5430     1.4330    -1.6130 c6         1 8QQ      -0.115400
     19 C11         -1.7100    -1.0610    -0.1600 c6         1 8QQ       0.097500
     20 C12         -0.6140    -0.0550     0.1680 c6         1 8QQ      -0.115400
     21 C8          -0.2650     0.8200    -1.0380 c6         1 8QQ       0.171000
     22 O2           0.3080     0.0370    -2.0700 oh         1 8QQ      -0.669000
     23 C7           0.6840     1.9710    -0.6670 c3         1 8QQ       0.068000
     24 N1           2.0040     1.5210    -0.2410 n          1 8QQ      -0.354300
     25 C2           2.9320     1.2540    -1.2250 cd         1 8QQ       0.473800
     26 C3           2.2810     1.4010     1.1200 c          1 8QQ       0.498500
     27 N2           4.1990     0.6340     2.4960 nd         1 8QQ      -0.449800
     28 N3           5.4050     0.2000     2.1730 na         1 8QQ       0.168800
     29 C5           6.2750    -0.2340     3.2460 c3         1 8QQ       0.061900
     30 C4           5.6430     0.1670     0.8370 cd         1 8QQ      -0.075000
     31 C1           4.4630     0.6160     0.2570 cc         1 8QQ       0.048400
     32 C6           6.9000    -0.2170     0.1990 ca         1 8QQ      -0.028000
     33 C22          8.1270     0.2990     0.6200 ca         1 8QQ      -0.086000
     34 C21          9.3000    -0.0540    -0.0250 ca         1 8QQ      -0.102500
     35 C20          9.2840    -0.9210    -1.1150 ca         1 8QQ      -0.073300
     36 C23         10.5540    -1.2860    -1.8430 c3         1 8QQ       0.195100
     37 N5          11.6930    -1.3570    -0.9450 n8         1 8QQ      -1.001200
     38 C19          8.0580    -1.4290    -1.5360 ca         1 8QQ      -0.102500
     39 C18          6.8800    -1.0810    -0.8950 ca         1 8QQ      -0.086000
     40 H1          -6.1380     0.7150     1.4150 hc         1 8QQ       0.103700
     41 H2          -6.8550    -1.2610    -1.7420 ha         1 8QQ       0.114500
     42 H3          -7.8420    -3.4930    -1.6750 ha         1 8QQ       0.114000
     43 H4          -8.5320    -4.4980     0.4790 ha         1 8QQ       0.113000
     44 H5          -8.2140    -3.2200     2.5800 ha         1 8QQ       0.114000
     45 H6          -7.2180    -0.9730     2.5170 ha         1 8QQ       0.114500
     46 H7          -5.3290     0.2930    -1.5050 hc         1 8QQ       0.072700
     47 H8          -4.8100     1.6290    -0.5120 hc         1 8QQ       0.072700
     48 H9          -2.2800    -0.3090    -2.6570 h1         1 8QQ       0.063200
     49 H10         -3.5110     0.8610    -2.2510 h1         1 8QQ       0.063200
     50 H11         -1.3150     1.9540    -2.5470 hc         1 8QQ       0.064200
     51 H12         -1.9310     2.1820    -0.9170 hc         1 8QQ       0.064200
     52 H13         -1.9760    -1.6310     0.7260 h1         1 8QQ       0.063200
     53 H14         -1.3660    -1.7760    -0.9120 h1         1 8QQ       0.063200
     54 H15         -0.9430     0.5740     0.9980 hc         1 8QQ       0.064200
     55 H16          0.2710    -0.5960     0.5200 hc         1 8QQ       0.064200
     56 H17          0.8570    -0.6550    -1.6850 ho         1 8QQ       0.452000
     57 H18          0.8150     2.6220    -1.5340 h1         1 8QQ       0.073200
     58 H19          0.2490     2.5790     0.1240 h1         1 8QQ       0.073200
     59 H20          2.5860     1.4540    -2.2310 h5         1 8QQ       0.056800
     60 H21          5.7440    -0.9520     3.8660 h1         1 8QQ       0.066367
     61 H22          7.1600    -0.7100     2.8370 h1         1 8QQ       0.066367
     62 H23          6.5740     0.6160     3.8550 h1         1 8QQ       0.066367
     63 H24          8.1670     1.0000     1.4450 ha         1 8QQ       0.120000
     64 H25         10.2420     0.3490     0.3210 ha         1 8QQ       0.123500
     65 H26         10.3760    -2.2070    -2.4140 h1         1 8QQ       0.037700
     66 H27         10.7600    -0.5100    -2.5860 h1         1 8QQ       0.037700
     67 H28         11.6250    -2.1940    -0.3790 hn         1 8QQ       0.398500
     68 H29         12.5430    -1.4500    -1.4850 hn         1 8QQ       0.398500
     69 H31          8.0210    -2.1110    -2.3780 ha         1 8QQ       0.123500
     70 H32          5.9410    -1.4990    -1.2330 ha         1 8QQ       0.120000
     71 C13         -3.9880    -0.2400     0.0990 c          1 8QQ       0.608100
     72 F2          -7.8220     1.2920    -1.3260 f          1 8QQ      -0.117000
@<TRIPOS>BOND
     1     1    25 2   
     2     1    31 1   
     3     2    26 1   
     4     2    27 2   
     5     2    31 1   
     6     3    26 2   
     7     4     5 1   
     8     4     6 1   
     9     4     7 1   
    10     4    72 1   
    11     7     8 1   
    12     7    14 1   
    13     7    40 1   
    14     8     9 ar  
    15     8    13 ar  
    16     9    10 ar  
    17     9    41 1   
    18    10    11 ar  
    19    10    42 1   
    20    11    12 ar  
    21    11    43 1   
    22    12    13 ar  
    23    12    44 1   
    24    13    45 1   
    25    14    46 1   
    26    14    47 1   
    27    14    71 1   
    28    15    71 2   
    29    16    17 1   
    30    16    19 1   
    31    16    71 1   
    32    17    18 1   
    33    17    48 1   
    34    17    49 1   
    35    18    21 1   
    36    18    50 1   
    37    18    51 1   
    38    19    20 1   
    39    19    52 1   
    40    19    53 1   
    41    20    21 1   
    42    20    54 1   
    43    20    55 1   
    44    21    22 1   
    45    21    23 1   
    46    22    56 1   
    47    23    24 1   
    48    23    57 1   
    49    23    58 1   
    50    24    25 1   
    51    24    26 1   
    52    25    59 1   
    53    27    28 1   
    54    28    29 1   
    55    28    30 1   
    56    29    60 1   
    57    29    61 1   
    58    29    62 1   
    59    30    31 2   
    60    30    32 1   
    61    32    33 ar  
    62    32    39 ar  
    63    33    34 ar  
    64    33    63 1   
    65    34    35 ar  
    66    34    64 1   
    67    35    36 1   
    68    35    38 ar  
    69    36    37 1   
    70    36    65 1   
    71    36    66 1   
    72    37    67 1   
    73    37    68 1   
    74    38    39 ar  
    75    38    69 1   
    76    39    70 1   
@<TRIPOS>SUBSTRUCTURE
     1 8QQ         1 TEMP              0 ****  ****    0 ROOT
