@<TRIPOS>MOLECULE
8QQ
   72    76     1     0     0
SMALL
No Charge or Current Charge


@<TRIPOS>ATOM
      1 N            4.3320     0.9570    -0.9320 nc         1 8QQ      -0.565100
      2 C            3.7810     1.1660     1.4590 cc         1 8QQ       0.146500
      3 O            1.5680     1.8960     2.0060 o          1 8QQ      -0.511000
      4 C17         -7.8060     1.2900    -0.2130 c3         1 8QQ       0.296000
      5 F           -7.4470     2.5860    -0.0640 f          1 8QQ      -0.117000
      6 F1          -8.9560     1.1050     0.4760 f          1 8QQ      -0.117000
      7 C15         -6.6880     0.3390     0.3060 c3         1 8QQ      -0.063400
      8 C16         -7.1510    -1.1260     0.3380 ca         1 8QQ      -0.088300
      9 C28         -7.3230    -1.8670    -0.8520 ca         1 8QQ      -0.081000
     10 C27         -7.7470    -3.2060    -0.8020 ca         1 8QQ      -0.111500
     11 C26         -8.0050    -3.8190     0.4340 ca         1 8QQ      -0.098000
     12 C25         -7.8380    -3.0900     1.6230 ca         1 8QQ      -0.111500
     13 C24         -7.4140    -1.7510     1.5750 ca         1 8QQ      -0.081000
     14 C14         -5.3460     0.5020    -0.4740 c3         1 8QQ      -0.154400
     15 O1          -4.1360    -0.5790     1.3120 o          1 8QQ      -0.593100
     16 N4          -2.9220    -0.2740    -0.6100 n          1 8QQ      -0.405800
     17 C10         -2.6530     0.5000    -1.8530 c6         1 8QQ       0.097500
     18 C9          -1.5610     1.5680    -1.6020 c6         1 8QQ      -0.115400
     19 C11         -1.7070    -0.9530    -0.0900 c6         1 8QQ       0.097500
     20 C12         -0.5850     0.0750     0.2020 c6         1 8QQ      -0.115400
     21 C8          -0.2500     0.9480    -1.0430 c6         1 8QQ       0.171000
     22 O2           0.3370     0.1240    -2.0570 oh         1 8QQ      -0.669000
     23 C7           0.7630     2.0900    -0.6830 c3         1 8QQ       0.068000
     24 N1           2.1130     1.6540    -0.2310 n          1 8QQ      -0.354300
     25 C2           3.0820     1.3510    -1.1920 cd         1 8QQ       0.473800
     26 C3           2.3990     1.6040     1.1520 c          1 8QQ       0.498500
     27 N2           4.3310     1.0120     2.6480 nd         1 8QQ      -0.449800
     28 N3           5.6180     0.5880     2.3290 na         1 8QQ       0.168800
     29 C5           6.5140     0.1770     3.4220 c3         1 8QQ       0.061900
     30 C4           5.8560     0.5170     0.9320 cd         1 8QQ      -0.075000
     31 C1           4.6370     0.8600     0.4040 cc         1 8QQ       0.048400
     32 C6           7.0840     0.0240     0.2430 ca         1 8QQ      -0.028000
     33 C22          8.3600     0.1610     0.8380 ca         1 8QQ      -0.086000
     34 C21          9.5190    -0.3020     0.1910 ca         1 8QQ      -0.102500
     35 C20          9.4360    -0.9150    -1.0700 ca         1 8QQ      -0.073300
     36 C23         10.6940    -1.4110    -1.7730 c3         1 8QQ       0.195100
     37 N5          11.0710    -2.7650    -1.3230 n8         1 8QQ      -1.001200
     38 C19          8.1770    -1.0530    -1.6770 ca         1 8QQ      -0.102500
     39 C18          7.0180    -0.5870    -1.0310 ca         1 8QQ      -0.086000
     40 H1          -6.4920     0.6650     1.3360 hc         1 8QQ       0.103700
     41 H2          -7.1340    -1.4100    -1.8200 ha         1 8QQ       0.114500
     42 H3          -7.8780    -3.7680    -1.7240 ha         1 8QQ       0.114000
     43 H4          -8.3330    -4.8560     0.4720 ha         1 8QQ       0.113000
     44 H5          -8.0370    -3.5620     2.5820 ha         1 8QQ       0.114000
     45 H6          -7.2890    -1.2000     2.5050 ha         1 8QQ       0.114500
     46 H7          -5.4310     0.1630    -1.5120 hc         1 8QQ       0.072700
     47 H8          -5.0950     1.5590    -0.6110 hc         1 8QQ       0.072700
     48 H9          -2.3150    -0.1930    -2.6370 h1         1 8QQ       0.063200
     49 H10         -3.5530     0.9950    -2.2380 h1         1 8QQ       0.063200
     50 H11         -1.3550     2.1080    -2.5370 hc         1 8QQ       0.064200
     51 H12         -1.9500     2.3130    -0.8950 hc         1 8QQ       0.064200
     52 H13         -1.9320    -1.5210     0.8240 h1         1 8QQ       0.063200
     53 H14         -1.3590    -1.6810    -0.8370 h1         1 8QQ       0.063200
     54 H15         -0.9100     0.7230     1.0270 hc         1 8QQ       0.064200
     55 H16          0.3090    -0.4510     0.5610 hc         1 8QQ       0.064200
     56 H17          0.8600    -0.5670    -1.5970 ho         1 8QQ       0.452000
     57 H18          0.8880     2.7210    -1.5730 h1         1 8QQ       0.073200
     58 H19          0.3050     2.7340     0.0790 h1         1 8QQ       0.073200
     59 H20          2.7750     1.4510    -2.2270 h5         1 8QQ       0.056800
     60 H21          5.9240    -0.0570     4.3160 h1         1 8QQ       0.066367
     61 H22          7.0740    -0.7170     3.1270 h1         1 8QQ       0.066367
     62 H23          7.2060     0.9940     3.6560 h1         1 8QQ       0.066367
     63 H24          8.4790     0.6670     1.7890 ha         1 8QQ       0.120000
     64 H25         10.4870    -0.1760     0.6710 ha         1 8QQ       0.123500
     65 H26         10.5300    -1.4310    -2.8590 h1         1 8QQ       0.037700
     66 H27         11.5280    -0.7240    -1.5690 h1         1 8QQ       0.037700
     67 H28         10.3130    -3.4130    -1.5680 hn         1 8QQ       0.398500
     68 H29         11.8640    -3.0940    -1.8860 hn         1 8QQ       0.398500
     69 H31          8.0910    -1.5280    -2.6520 ha         1 8QQ       0.123500
     70 H32          6.0650    -0.7430    -1.5250 ha         1 8QQ       0.120000
     71 C13         -4.1030    -0.1540     0.1640 c          1 8QQ       0.608100
     72 F2          -8.0710     1.0830    -1.5240 f          1 8QQ      -0.117000
@<TRIPOS>BOND
     1     1    25 2   
     2     1    31 1   
     3     2    26 1   
     4     2    27 2   
     5     2    31 1   
     6     3    26 2   
     7     4     5 1   
     8     4     6 1   
     9     4     7 1   
    10     4    72 1   
    11     7     8 1   
    12     7    14 1   
    13     7    40 1   
    14     8     9 ar  
    15     8    13 ar  
    16     9    10 ar  
    17     9    41 1   
    18    10    11 ar  
    19    10    42 1   
    20    11    12 ar  
    21    11    43 1   
    22    12    13 ar  
    23    12    44 1   
    24    13    45 1   
    25    14    46 1   
    26    14    47 1   
    27    14    71 1   
    28    15    71 2   
    29    16    17 1   
    30    16    19 1   
    31    16    71 1   
    32    17    18 1   
    33    17    48 1   
    34    17    49 1   
    35    18    21 1   
    36    18    50 1   
    37    18    51 1   
    38    19    20 1   
    39    19    52 1   
    40    19    53 1   
    41    20    21 1   
    42    20    54 1   
    43    20    55 1   
    44    21    22 1   
    45    21    23 1   
    46    22    56 1   
    47    23    24 1   
    48    23    57 1   
    49    23    58 1   
    50    24    25 1   
    51    24    26 1   
    52    25    59 1   
    53    27    28 1   
    54    28    29 1   
    55    28    30 1   
    56    29    60 1   
    57    29    61 1   
    58    29    62 1   
    59    30    31 2   
    60    30    32 1   
    61    32    33 ar  
    62    32    39 ar  
    63    33    34 ar  
    64    33    63 1   
    65    34    35 ar  
    66    34    64 1   
    67    35    36 1   
    68    35    38 ar  
    69    36    37 1   
    70    36    65 1   
    71    36    66 1   
    72    37    67 1   
    73    37    68 1   
    74    38    39 ar  
    75    38    69 1   
    76    39    70 1   
@<TRIPOS>SUBSTRUCTURE
     1 8QQ         1 TEMP              0 ****  ****    0 ROOT
