@<TRIPOS>MOLECULE
8QR
   15    15     1     0     0
SMALL
No Charge or Current Charge


@<TRIPOS>ATOM
      1 C02        -19.4360   -19.1680   -16.9890 c          1 8QR       0.566000
      2 C04        -18.9120   -16.8520   -17.0960 c5         1 8QR       0.102000
      3 C05        -18.5510   -17.4610   -18.4820 c5         1 8QR      -0.095400
      4 C06        -19.3970   -18.7610   -18.5000 c5         1 8QR       0.071500
      5 N03        -19.0520   -18.0590   -16.2830 ns         1 8QR      -0.514900
      6 N07        -18.8770   -19.7680   -19.4740 n8         1 8QR      -0.980200
      7 O01        -19.6860   -20.2500   -16.4770 o          1 8QR      -0.549000
      8 H1         -18.1270   -16.1790   -16.7260 h1         1 8QR       0.044700
      9 H2         -19.8560   -16.2910   -17.1390 h1         1 8QR       0.044700
     10 H3         -17.4780   -17.6860   -18.5300 hc         1 8QR       0.065200
     11 H4         -18.7830   -16.7840   -19.3120 hc         1 8QR       0.065200
     12 H5         -20.4330   -18.5290   -18.7840 h1         1 8QR       0.037700
     13 H6         -19.0060   -18.1090   -15.2720 hn         1 8QR       0.329500
     14 H7         -19.4550   -20.6170   -19.4290 hn         1 8QR       0.406500
     15 H8         -19.0250   -19.4280   -20.4330 hn         1 8QR       0.406500
@<TRIPOS>BOND
     1     1     4 1   
     2     1     5 1   
     3     1     7 2   
     4     2     3 1   
     5     2     5 1   
     6     2     8 1   
     7     2     9 1   
     8     3     4 1   
     9     3    10 1   
    10     3    11 1   
    11     4     6 1   
    12     4    12 1   
    13     5    13 1   
    14     6    14 1   
    15     6    15 1   
@<TRIPOS>SUBSTRUCTURE
     1 8QR         1 TEMP              0 ****  ****    0 ROOT
