@<TRIPOS>MOLECULE
8QR
   15    15     1     0     0
SMALL
bcc


@<TRIPOS>ATOM
      1 C02        -19.3970   -19.1630   -17.0620 c          1 8QR       0.708500
      2 C04        -18.8740   -16.8750   -17.1020 c5         1 8QR       0.102000
      3 C05        -18.6090   -17.4360   -18.5010 c5         1 8QR      -0.095400
      4 C06        -19.4120   -18.7320   -18.5230 c5         1 8QR       0.071500
      5 N03        -19.0920   -18.0810   -16.3290 ns         1 8QR      -0.581900
      6 N07        -18.8550   -19.7580   -19.3780 n8         1 8QR      -0.869800
      7 O01        -19.6430   -20.2830   -16.6450 o          1 8QR      -0.624500
      8 H1         -18.0320   -16.3040   -16.7120 h1         1 8QR       0.044700
      9 H2         -19.7560   -16.2290   -17.0860 h1         1 8QR       0.044700
     10 H3         -17.5490   -17.6760   -18.6130 hc         1 8QR       0.065200
     11 H4         -18.8870   -16.7380   -19.2880 hc         1 8QR       0.065200
     12 H5         -20.4650   -18.4930   -18.7520 h1         1 8QR       0.037700
     13 H6         -19.1400   -18.0810   -15.3220 hn         1 8QR       0.329500
     14 H7         -19.3910   -20.6100   -19.2690 hn         1 8QR       0.351300
     15 H8         -18.9710   -19.4820   -20.3450 hn         1 8QR       0.351300
@<TRIPOS>BOND
     1     1     4 1   
     2     1     5 1   
     3     1     7 2   
     4     2     3 1   
     5     2     5 1   
     6     2     8 1   
     7     2     9 1   
     8     3     4 1   
     9     3    10 1   
    10     3    11 1   
    11     4     6 1   
    12     4    12 1   
    13     5    13 1   
    14     6    14 1   
    15     6    15 1   
@<TRIPOS>SUBSTRUCTURE
     1 8QR         1 TEMP              0 ****  ****    0 ROOT
