@<TRIPOS>MOLECULE
8QS
   41    43     1     0     0
SMALL
bcc


@<TRIPOS>ATOM
      1 C10         -0.8530     2.5900     0.3040 c6         1 8QS      -0.018200
      2 C11         -2.1690     2.2890    -0.4030 c6         1 8QS       0.139400
      3 O1          -2.7960    -2.3860     2.1940 o          1 8QS      -0.830800
      4 C16         -2.1830    -1.4390     1.6550 c          1 8QS       0.931600
      5 O2          -1.4440    -0.6170     2.2210 o          1 8QS      -0.830800
      6 C15         -2.3690    -1.3440     0.1290 c3         1 8QS      -0.205400
      7 C12         -1.8600    -0.0880    -0.5720 c6         1 8QS       0.240000
      8 C13         -1.9970    -0.2450    -2.1050 c3         1 8QS      -0.103400
      9 C14         -3.4210    -0.4350    -2.6090 c3         1 8QS      -0.077100
     10 C8          -0.4250     0.2080    -0.2560 cc         1 8QS       0.002700
     11 N            0.6020    -0.6880    -0.3560 na         1 8QS      -0.152400
     12 C7           1.7780    -0.0630    -0.0310 ca         1 8QS      -0.038200
     13 C2           3.0730    -0.5800     0.0330 ca         1 8QS      -0.093300
     14 C1           3.3700    -2.0130    -0.3100 c3         1 8QS      -0.025100
     15 C            3.3860    -2.2640    -1.8180 c3         1 8QS      -0.087100
     16 O           -2.6510     0.9930    -0.1050 os         1 8QS      -0.374600
     17 C9           0.0590     1.4310     0.0930 cd         1 8QS      -0.157400
     18 C6           1.4710     1.2880     0.2540 ca         1 8QS      -0.061800
     19 C5           2.5070     2.1590     0.6090 ca         1 8QS      -0.089000
     20 C4           3.7960     1.6630     0.6740 ca         1 8QS      -0.173000
     21 C3           4.0700     0.3160     0.3930 ca         1 8QS      -0.133000
     22 H1          -0.4380     3.5180    -0.1010 hc         1 8QS       0.042700
     23 H2          -1.0240     2.7640     1.3710 hc         1 8QS       0.042700
     24 H3          -2.9490     2.9830    -0.0860 h1         1 8QS       0.024200
     25 H4          -2.0360     2.4230    -1.4840 h1         1 8QS       0.024200
     26 H6          -1.8850    -2.2160    -0.3260 hc         1 8QS       0.029700
     27 H7          -3.4310    -1.4680    -0.0980 hc         1 8QS       0.029700
     28 H8          -1.5590     0.6290    -2.5950 hc         1 8QS       0.028700
     29 H9          -1.3810    -1.0940    -2.4170 hc         1 8QS       0.028700
     30 H10         -4.0690     0.3800    -2.2870 hc         1 8QS       0.027700
     31 H11         -3.4340    -0.4540    -3.6990 hc         1 8QS       0.027700
     32 H12         -3.8650    -1.3690    -2.2650 hc         1 8QS       0.027700
     33 H13          0.4990    -1.6690    -0.5520 hn         1 8QS       0.299700
     34 H14          4.3360    -2.2920     0.1160 hc         1 8QS       0.042200
     35 H15          2.6320    -2.6730     0.1580 hc         1 8QS       0.042200
     36 H16          2.4250    -2.0230    -2.2740 hc         1 8QS       0.027700
     37 H17          4.1460    -1.6520    -2.3050 hc         1 8QS       0.027700
     38 H18          3.6040    -3.3090    -2.0370 hc         1 8QS       0.027700
     39 H19          2.3040     3.2000     0.8290 ha         1 8QS       0.120000
     40 H20          4.6120     2.3200     0.9490 ha         1 8QS       0.109000
     41 H21          5.0920    -0.0390     0.4580 ha         1 8QS       0.108000
@<TRIPOS>BOND
     1     1     2 1   
     2     1    17 1   
     3     1    22 1   
     4     1    23 1   
     5     2    16 1   
     6     2    24 1   
     7     2    25 1   
     8     3     4 1   
     9     4     5 1   
    10     4     6 1   
    11     6     7 1   
    12     6    26 1   
    13     6    27 1   
    14     7     8 1   
    15     7    10 1   
    16     7    16 1   
    17     8     9 1   
    18     8    28 1   
    19     8    29 1   
    20     9    30 1   
    21     9    31 1   
    22     9    32 1   
    23    10    11 1   
    24    10    17 2   
    25    11    12 1   
    26    11    33 1   
    27    12    13 ar  
    28    12    18 ar  
    29    13    14 1   
    30    13    21 ar  
    31    14    15 1   
    32    14    34 1   
    33    14    35 1   
    34    15    36 1   
    35    15    37 1   
    36    15    38 1   
    37    17    18 1   
    38    18    19 ar  
    39    19    20 ar  
    40    19    39 1   
    41    20    21 ar  
    42    20    40 1   
    43    21    41 1   
@<TRIPOS>SUBSTRUCTURE
     1 8QS         1 TEMP              0 ****  ****    0 ROOT
