@<TRIPOS>MOLECULE
8QS
   41    43     1     0     0
SMALL
No Charge or Current Charge


@<TRIPOS>ATOM
      1 C10         -0.9620     2.4510     0.3840 c6         1 8QS      -0.018200
      2 C11         -2.3100     2.1740    -0.3350 c6         1 8QS       0.162600
      3 O1          -2.9700    -1.1220     2.4050 o          1 8QS      -0.725500
      4 C16         -2.1160    -1.5580     1.6480 c          1 8QS       0.721000
      5 O2          -1.0660    -2.0510     2.0330 o          1 8QS      -0.725500
      6 C15         -2.4040    -1.5590     0.1410 c3         1 8QS      -0.205400
      7 C12         -1.9200    -0.2480    -0.5520 c6         1 8QS       0.263200
      8 C13         -2.0990    -0.3680    -2.1080 c3         1 8QS      -0.103400
      9 C14         -3.5480    -0.4820    -2.6380 c3         1 8QS      -0.077100
     10 C8          -0.4650     0.0680    -0.2470 cc         1 8QS       0.002700
     11 N            0.6790    -0.7440    -0.3750 na         1 8QS      -0.202700
     12 C7           1.8110    -0.0170    -0.0330 ca         1 8QS      -0.038200
     13 C2           3.1580    -0.4190    -0.0150 ca         1 8QS      -0.093300
     14 C1           3.5800    -1.8320    -0.4040 c3         1 8QS      -0.025100
     15 C            3.6520    -2.0220    -1.9310 c3         1 8QS      -0.087100
     16 O           -2.7750     0.8250    -0.0690 os         1 8QS      -0.421000
     17 C9           0.0020     1.3050     0.1700 cd         1 8QS      -0.157400
     18 C6           1.4370     1.2560     0.3110 ca         1 8QS      -0.061800
     19 C5           2.3630     2.2300     0.7010 ca         1 8QS      -0.071000
     20 C4           3.7230     1.8580     0.7310 ca         1 8QS      -0.155000
     21 C3           4.1170     0.5450     0.3750 ca         1 8QS      -0.115000
     22 H1          -0.5350     3.3940     0.0150 hc         1 8QS       0.042700
     23 H2          -1.1440     2.5900     1.4580 hc         1 8QS       0.042700
     24 H3          -3.0700     2.8870     0.0140 h1         1 8QS       0.024200
     25 H4          -2.1960     2.3140    -1.4190 h1         1 8QS       0.024200
     26 H6          -1.8560    -2.3830    -0.3320 hc         1 8QS       0.029700
     27 H7          -3.4880    -1.6170    -0.0160 hc         1 8QS       0.029700
     28 H8          -1.6280     0.4900    -2.6010 hc         1 8QS       0.028700
     29 H9          -1.5410    -1.2410    -2.4690 hc         1 8QS       0.028700
     30 H10         -4.1500     0.3800    -2.3300 hc         1 8QS       0.027700
     31 H11         -3.5460    -0.5170    -3.7340 hc         1 8QS       0.027700
     32 H12         -4.0330    -1.3950    -2.2760 hc         1 8QS       0.027700
     33 H13          0.6750    -1.7170    -0.6570 hn         1 8QS       0.350000
     34 H14          4.5610    -2.0670     0.0280 hc         1 8QS       0.042200
     35 H15          2.8810    -2.5650     0.0160 hc         1 8QS       0.042200
     36 H16          2.6750    -1.8400    -2.3930 hc         1 8QS       0.027700
     37 H17          4.3770    -1.3270    -2.3710 hc         1 8QS       0.027700
     38 H18          3.9640    -3.0440    -2.1750 hc         1 8QS       0.027700
     39 H19          2.0450     3.2340     0.9700 ha         1 8QS       0.102000
     40 H20          4.4740     2.5860     1.0270 ha         1 8QS       0.091000
     41 H21          5.1720     0.2800     0.4010 ha         1 8QS       0.090000
@<TRIPOS>BOND
     1     1     2 1   
     2     1    17 1   
     3     1    22 1   
     4     1    23 1   
     5     2    16 1   
     6     2    24 1   
     7     2    25 1   
     8     3     4 1   
     9     4     5 1   
    10     4     6 1   
    11     6     7 1   
    12     6    26 1   
    13     6    27 1   
    14     7     8 1   
    15     7    10 1   
    16     7    16 1   
    17     8     9 1   
    18     8    28 1   
    19     8    29 1   
    20     9    30 1   
    21     9    31 1   
    22     9    32 1   
    23    10    11 1   
    24    10    17 2   
    25    11    12 1   
    26    11    33 1   
    27    12    13 ar  
    28    12    18 ar  
    29    13    14 1   
    30    13    21 ar  
    31    14    15 1   
    32    14    34 1   
    33    14    35 1   
    34    15    36 1   
    35    15    37 1   
    36    15    38 1   
    37    17    18 1   
    38    18    19 ar  
    39    19    20 ar  
    40    19    39 1   
    41    20    21 ar  
    42    20    40 1   
    43    21    41 1   
@<TRIPOS>SUBSTRUCTURE
     1 8QS         1 TEMP              0 ****  ****    0 ROOT
