@<TRIPOS>MOLECULE
8QT
   54    56     1     0     0
SMALL
bcc


@<TRIPOS>ATOM
      1 C4          -1.4230     0.8710    -0.1890 ca         1 8QT       0.974900
      2 C14         -4.3140    -2.3920    -0.0420 c3         1 8QT       0.063000
      3 C5           0.2270    -0.7090     0.1290 ca         1 8QT       0.809200
      4 C11          4.6410    -1.0470    -0.7400 ca         1 8QT       0.419200
      5 C7           3.9090    -0.6610     0.3780 ca         1 8QT      -0.236600
      6 C8           4.4530    -0.9400     1.6260 ca         1 8QT      -0.075000
      7 C9           5.6810    -1.5760     1.7000 ca         1 8QT      -0.251300
      8 C10          6.3220    -1.9160     0.5180 ca         1 8QT       0.410200
      9 C12         -0.7760    -1.6980     0.1550 ca         1 8QT      -0.276200
     10 C13         -2.0090    -3.4070     0.2440 cc         1 8QT       0.387700
     11 N1          -1.7300     2.1750    -0.3640 nu         1 8QT      -0.875900
     12 N2          -0.1260     0.5590    -0.0400 nb         1 8QT      -0.884000
     13 C3          -0.7930     3.2670    -0.4820 c3         1 8QT       0.249500
     14 N3           1.5260    -1.0060     0.2640 nu         1 8QT      -0.866900
     15 C2          -0.7620     3.8080    -1.9130 c3         1 8QT      -0.088400
     16 N4           5.8170    -1.6580    -0.6820 nb         1 8QT      -0.666000
     17 N5          -0.7570    -3.0620     0.3070 nd         1 8QT      -0.545100
     18 N6          -2.8590    -2.3480     0.0580 na         1 8QT      -0.258000
     19 C15         -4.7490    -3.2220    -1.2420 c3         1 8QT      -0.106100
     20 C16         -4.9270    -2.8880     1.2610 c3         1 8QT      -0.106100
     21 C17         -2.0740    -1.2360    -0.0030 ca         1 8QT       0.498800
     22 N7          -2.4570     0.0250    -0.1790 nb         1 8QT      -0.834000
     23 C18         -1.1480     4.3400     0.5570 c3         1 8QT       0.138100
     24 C19         -1.1050     3.7970     1.9780 c3         1 8QT      -0.125100
     25 O1          -0.2270     5.4000     0.3890 oh         1 8QT      -0.599800
     26 H1          -4.6180    -1.3570    -0.2040 h1         1 8QT       0.088700
     27 H2           2.4190     0.7300     1.0270 h1         1 8QT       0.061200
     28 H3           2.5250     0.5520    -0.7130 h1         1 8QT       0.061200
     29 H5           3.9250    -0.6600     2.5300 ha         1 8QT       0.141000
     30 H6           6.1380    -1.8040     2.6540 ha         1 8QT       0.144000
     31 H7           7.2840    -2.4160     0.5430 h4         1 8QT       0.020100
     32 H8          -2.3770    -4.4190     0.3250 h5         1 8QT       0.061800
     33 H9          -2.7010     2.3680    -0.5530 hn         1 8QT       0.440800
     34 H10          0.1930     2.8680    -0.2350 h1         1 8QT       0.096700
     35 H11          1.7800    -1.9690     0.4120 hn         1 8QT       0.464800
     36 H15         -1.7470     4.2120    -2.1710 hc         1 8QT       0.049200
     37 H16         -0.0640     4.6460    -1.9610 hc         1 8QT       0.049200
     38 H17         -5.8320    -3.1700    -1.3540 hc         1 8QT       0.045700
     39 H18         -4.2960    -2.8530    -2.1610 hc         1 8QT       0.045700
     40 H19         -4.4800    -4.2730    -1.1230 hc         1 8QT       0.045700
     41 H20         -4.6590    -3.9260     1.4590 hc         1 8QT       0.045700
     42 H21         -4.6000    -2.2810     2.1050 hc         1 8QT       0.045700
     43 H22         -6.0140    -2.8310     1.2040 hc         1 8QT       0.045700
     44 H23         -2.1720     4.6900     0.3470 h1         1 8QT       0.023700
     45 H24         -1.3280     4.5880     2.6980 hc         1 8QT       0.044367
     46 H25         -1.8410     3.0080     2.1260 hc         1 8QT       0.044367
     47 H26         -0.1190     3.3930     2.2120 hc         1 8QT       0.044367
     48 H27         -0.4540     6.0980     1.0100 ho         1 8QT       0.405000
     49 C1          -0.3520     2.7540    -2.9320 c3         1 8QT      -0.088100
     50 C6           2.5700    -0.0020     0.2290 c3         1 8QT       0.288100
     51 H4           4.2500    -0.8430    -1.7330 h4         1 8QT       0.023100
     52 H12         -0.2750     3.1880    -3.9290 hc         1 8QT       0.035033
     53 H13          0.6180     2.3200    -2.6810 hc         1 8QT       0.035033
     54 H14         -1.0720     1.9370    -2.9850 hc         1 8QT       0.035033
@<TRIPOS>BOND
     1     1    11 1   
     2     1    12 ar  
     3     1    22 ar  
     4     2    18 1   
     5     2    19 1   
     6     2    20 1   
     7     2    26 1   
     8     3     9 ar  
     9     3    12 ar  
    10     3    14 1   
    11     4     5 ar  
    12     4    16 ar  
    13     4    51 1   
    14     5     6 ar  
    15     5    50 1   
    16     6     7 ar  
    17     6    29 1   
    18     7     8 ar  
    19     7    30 1   
    20     8    16 ar  
    21     8    31 1   
    22     9    17 1   
    23     9    21 ar  
    24    10    17 2   
    25    10    18 1   
    26    10    32 1   
    27    11    13 1   
    28    11    33 1   
    29    13    15 1   
    30    13    23 1   
    31    13    34 1   
    32    14    35 1   
    33    14    50 1   
    34    15    36 1   
    35    15    37 1   
    36    15    49 1   
    37    18    21 1   
    38    19    38 1   
    39    19    39 1   
    40    19    40 1   
    41    20    41 1   
    42    20    42 1   
    43    20    43 1   
    44    21    22 ar  
    45    23    24 1   
    46    23    25 1   
    47    23    44 1   
    48    24    45 1   
    49    24    46 1   
    50    24    47 1   
    51    25    48 1   
    52    27    50 1   
    53    28    50 1   
    54    49    52 1   
    55    49    53 1   
    56    49    54 1   
@<TRIPOS>SUBSTRUCTURE
     1 8QT         1 TEMP              0 ****  ****    0 ROOT
