@<TRIPOS>MOLECULE
8QT
   54    56     1     0     0
SMALL
No Charge or Current Charge


@<TRIPOS>ATOM
      1 C4          -1.3890     0.9300    -0.1220 ca         1 8QT       0.448900
      2 C14         -4.2400    -2.4480     0.0390 c3         1 8QT       0.092300
      3 C5           0.2540    -0.6360     0.0970 ca         1 8QT       0.480900
      4 C11          4.8630    -0.9960    -0.7850 ca         1 8QT       0.353900
      5 C7           4.0240    -0.8520     0.3370 ca         1 8QT      -0.171300
      6 C8           4.4080    -1.4550     1.5500 ca         1 8QT      -0.057000
      7 C9           5.6120    -2.1770     1.5800 ca         1 8QT      -0.168000
      8 C10          6.3860    -2.2690     0.4110 ca         1 8QT       0.344900
      9 C12         -0.7390    -1.6340     0.1380 ca         1 8QT      -0.145600
     10 C13         -1.8720    -3.4660     0.2450 cc         1 8QT       0.387700
     11 N1          -1.7690     2.2510    -0.2610 nu         1 8QT      -0.931100
     12 N2          -0.0730     0.6600    -0.0310 nb         1 8QT      -0.358000
     13 C3          -0.8980     3.4410    -0.4320 c3         1 8QT       0.249500
     14 N3           1.5970    -0.9650     0.1890 nu         1 8QT      -0.922100
     15 C2          -0.8200     3.7990    -1.9450 c3         1 8QT      -0.088400
     16 N4           6.0250    -1.6900    -0.7570 nb         1 8QT      -0.666000
     17 N5          -0.6000    -3.0230     0.2670 nd         1 8QT      -0.545100
     18 N6          -2.7670    -2.4020     0.1070 na         1 8QT      -0.287300
     19 C15         -4.7220    -3.2260    -1.2030 c3         1 8QT      -0.106100
     20 C16         -4.8470    -3.0100     1.3410 c3         1 8QT      -0.106100
     21 C17         -2.0500    -1.2410     0.0390 ca         1 8QT       0.170500
     22 N7          -2.4060     0.0490    -0.0930 nb         1 8QT      -0.308000
     23 C18         -1.4160     4.6350     0.4510 c3         1 8QT       0.161300
     24 C19         -1.4590     4.3030     1.9610 c3         1 8QT      -0.125100
     25 O1          -0.5860     5.7970     0.2890 oh         1 8QT      -0.662000
     26 H1          -4.6060    -1.4170    -0.0660 h1         1 8QT       0.088700
     27 H2           2.6590     0.6180     1.1010 h1         1 8QT       0.061200
     28 H3           2.7630     0.5750    -0.6690 h1         1 8QT       0.061200
     29 H5           3.7900    -1.3670     2.4420 ha         1 8QT       0.123000
     30 H6           5.9480    -2.6590     2.4940 ha         1 8QT       0.126000
     31 H7           7.3250    -2.8230     0.4100 h4         1 8QT       0.020100
     32 H8          -2.1970    -4.4970     0.3200 h5         1 8QT       0.061800
     33 H9          -2.7740     2.3910    -0.3460 hn         1 8QT       0.496000
     34 H10          0.1210     3.2230    -0.0810 h1         1 8QT       0.096700
     35 H11          1.7720    -1.9620     0.3080 hn         1 8QT       0.520000
     36 H15         -1.8270     4.0140    -2.3230 hc         1 8QT       0.049200
     37 H16         -0.2400     4.7210    -2.0660 hc         1 8QT       0.049200
     38 H17         -5.8150    -3.1950    -1.2770 hc         1 8QT       0.045700
     39 H18         -4.3070    -2.7840    -2.1170 hc         1 8QT       0.045700
     40 H19         -4.4100    -4.2760    -1.1550 hc         1 8QT       0.045700
     41 H20         -4.5410    -4.0510     1.5010 hc         1 8QT       0.045700
     42 H21         -4.5200    -2.4180     2.2040 hc         1 8QT       0.045700
     43 H22         -5.9420    -2.9760     1.3020 hc         1 8QT       0.045700
     44 H23         -2.4390     4.8750     0.1300 h1         1 8QT       0.023700
     45 H24         -1.8070     5.1670     2.5400 hc         1 8QT       0.044367
     46 H25         -2.1450     3.4720     2.1600 hc         1 8QT       0.044367
     47 H26         -0.4640     4.0210     2.3260 hc         1 8QT       0.044367
     48 H27         -1.0070     6.5240     0.7980 ho         1 8QT       0.444000
     49 C1          -0.1620     2.7170    -2.8320 c3         1 8QT      -0.088100
     50 C6           2.7410    -0.0520     0.2340 c3         1 8QT       0.288100
     51 H4           4.5980    -0.5410    -1.7390 h4         1 8QT       0.023100
     52 H12         -0.0680     3.0780    -3.8630 hc         1 8QT       0.035033
     53 H13          0.8410     2.4700    -2.4630 hc         1 8QT       0.035033
     54 H14         -0.7620     1.8000    -2.8500 hc         1 8QT       0.035033
@<TRIPOS>BOND
     1     1    11 1   
     2     1    12 ar  
     3     1    22 ar  
     4     2    18 1   
     5     2    19 1   
     6     2    20 1   
     7     2    26 1   
     8     3     9 ar  
     9     3    12 ar  
    10     3    14 1   
    11     4     5 ar  
    12     4    16 ar  
    13     4    51 1   
    14     5     6 ar  
    15     5    50 1   
    16     6     7 ar  
    17     6    29 1   
    18     7     8 ar  
    19     7    30 1   
    20     8    16 ar  
    21     8    31 1   
    22     9    17 1   
    23     9    21 ar  
    24    10    17 2   
    25    10    18 1   
    26    10    32 1   
    27    11    13 1   
    28    11    33 1   
    29    13    15 1   
    30    13    23 1   
    31    13    34 1   
    32    14    35 1   
    33    14    50 1   
    34    15    36 1   
    35    15    37 1   
    36    15    49 1   
    37    18    21 1   
    38    19    38 1   
    39    19    39 1   
    40    19    40 1   
    41    20    41 1   
    42    20    42 1   
    43    20    43 1   
    44    21    22 ar  
    45    23    24 1   
    46    23    25 1   
    47    23    44 1   
    48    24    45 1   
    49    24    46 1   
    50    24    47 1   
    51    25    48 1   
    52    27    50 1   
    53    28    50 1   
    54    49    52 1   
    55    49    53 1   
    56    49    54 1   
@<TRIPOS>SUBSTRUCTURE
     1 8QT         1 TEMP              0 ****  ****    0 ROOT
