@<TRIPOS>MOLECULE
8QW
   66    70     1     0     0
SMALL
No Charge or Current Charge


@<TRIPOS>ATOM
      1 C1          -2.0660    -0.3250     1.3280 cc         1 8QW      -0.035000
      2 C2           0.1000    -0.5040     2.3260 cd         1 8QW      -0.066000
      3 C4           0.6650     0.1660     1.1590 cd         1 8QW      -0.073000
      4 C6          -0.1690     0.5350     0.0870 cc         1 8QW      -0.064000
      5 C12         -6.0350    -0.0270    -0.4190 ca         1 8QW       0.361000
      6 C13         -7.7340    -1.2910     0.8030 ca         1 8QW      -0.006000
      7 C14         -6.3880    -0.9740     0.5620 ca         1 8QW      -0.154000
      8 C15         -8.7520    -0.6690     0.0550 ca         1 8QW      -0.284500
      9 C16         -7.0560     0.5950    -1.1830 ca         1 8QW       0.061100
     10 C36         11.2050    -1.7360    -1.3570 ca         1 8QW       0.178000
     11 C38         10.8320    -1.7610    -0.0060 ca         1 8QW      -0.153000
     12 C37         10.0330    -0.7300     0.5200 ca         1 8QW      -0.065000
     13 C34         10.7830    -0.6890    -2.1880 ca         1 8QW      -0.153000
     14 C35          9.9850     0.3440    -1.6640 ca         1 8QW      -0.065000
     15 C26          9.6060     0.3330    -0.3030 ca         1 8QW      -0.098300
     16 C25          8.7320     1.4480     0.2840 c3         1 8QW      -0.088400
     17 C39          9.2890     2.8640    -0.0090 c3         1 8QW      -0.085100
     18 C24          7.2620     1.3070    -0.1810 c          1 8QW       0.609100
     19 O33          6.9430     1.4190    -1.3600 o          1 8QW      -0.568100
     20 C20          4.9570     0.8290     0.8640 ca         1 8QW      -0.008000
     21 C22          4.3510     0.5760     2.1040 ca         1 8QW      -0.150000
     22 C21          2.9660     0.3600     2.2030 ca         1 8QW      -0.069000
     23 C10          2.1370     0.3910     1.0580 ca         1 8QW      -0.065000
     24 C19          2.7570     0.6520    -0.1880 ca         1 8QW      -0.069000
     25 C18          4.1430     0.8650    -0.2850 ca         1 8QW      -0.150000
     26 N5          -1.5330     0.2760     0.2290 na         1 8QW       0.313400
     27 C3          -1.2510    -0.7360     2.4070 cc         1 8QW      -0.106000
     28 N8          -3.3640    -0.4160     1.1450 nd         1 8QW      -0.443300
     29 C9          -3.5160     0.1500    -0.1040 cd         1 8QW       0.766200
     30 N7          -2.4450     0.6050    -0.7100 nc         1 8QW      -0.661100
     31 N11         -4.7060     0.3130    -0.6970 nu         1 8QW      -0.876200
     32 O31         -6.6870     1.5140    -2.1600 os         1 8QW      -0.365100
     33 C32         -7.6480     2.2000    -2.9850 c3         1 8QW       0.153900
     34 C17         -8.4120     0.2750    -0.9380 ca         1 8QW      -0.079000
     35 S27        -10.4850    -1.0740     0.3790 sy         1 8QW       1.067500
     36 C30        -10.9560     0.1280     1.6210 c3         1 8QW      -0.337100
     37 O29        -11.2760    -0.7690    -0.8210 o          1 8QW      -0.529000
     38 O28        -10.5530    -2.3930     1.0220 o          1 8QW      -0.529000
     39 H1           0.7230    -0.8470     3.1430 ha         1 8QW       0.129000
     40 H2           0.1240     1.0290    -0.8260 h4         1 8QW       0.167000
     41 H3          -7.9790    -2.0250     1.5700 ha         1 8QW       0.137000
     42 H4          -5.6280    -1.4860     1.1400 ha         1 8QW       0.161000
     43 H6           9.7500    -0.7610     1.5700 ha         1 8QW       0.119000
     44 H7          11.0720    -0.6780    -3.2350 ha         1 8QW       0.133500
     45 H8           9.6570     1.1460    -2.3220 ha         1 8QW       0.119000
     46 H9           8.7380     1.3440     1.3770 hc         1 8QW       0.054700
     47 H10          8.6980     3.6250     0.5160 hc         1 8QW       0.047367
     48 H11         10.3280     2.9470     0.3320 hc         1 8QW       0.047367
     49 H12          9.2590     3.0950    -1.0800 hc         1 8QW       0.047367
     50 H14          4.9570     0.5510     3.0080 ha         1 8QW       0.132500
     51 H15          2.5530     0.2000     3.1940 ha         1 8QW       0.117000
     52 H16          2.1830     0.6670    -1.1090 ha         1 8QW       0.117000
     53 H17          4.5610     1.0520    -1.2690 ha         1 8QW       0.132500
     54 H18         -1.6960    -1.2270     3.2670 ha         1 8QW       0.150000
     55 H19         -4.6020     0.9060    -1.5130 hn         1 8QW       0.532000
     56 H20         -8.2380     1.4850    -3.5730 h1         1 8QW       0.045367
     57 H21         -8.3310     2.8020    -2.3720 h1         1 8QW       0.045367
     58 H22         -7.1370     2.8730    -3.6840 h1         1 8QW       0.045367
     59 H23         -9.2060     0.7490    -1.5100 ha         1 8QW       0.140000
     60 H24        -10.8190     1.1280     1.1980 h1         1 8QW       0.100700
     61 H25        -12.0050    -0.0430     1.8810 h1         1 8QW       0.100700
     62 H26        -10.3110    -0.0140     2.4950 h1         1 8QW       0.100700
     63 N23          6.3640     1.0360     0.8460 ns         1 8QW      -0.146000
     64 H5          11.1610    -2.5780     0.6320 ha         1 8QW       0.133500
     65 F40         11.9710    -2.7280    -1.8620 f          1 8QW      -0.178000
     66 H13          6.7940     0.9720     1.7600 hn         1 8QW       0.151000
@<TRIPOS>BOND
     1     1    26 1   
     2     1    27 1   
     3     1    28 2   
     4     2     3 1   
     5     2    27 2   
     6     2    39 1   
     7     3     4 2   
     8     3    23 1   
     9     4    26 1   
    10     4    40 1   
    11     5     7 ar  
    12     5     9 ar  
    13     5    31 1   
    14     6     7 ar  
    15     6     8 ar  
    16     6    41 1   
    17     7    42 1   
    18     8    34 ar  
    19     8    35 1   
    20     9    32 1   
    21     9    34 ar  
    22    10    11 ar  
    23    10    13 ar  
    24    10    65 1   
    25    11    12 ar  
    26    11    64 1   
    27    12    15 ar  
    28    12    43 1   
    29    13    14 ar  
    30    13    44 1   
    31    14    15 ar  
    32    14    45 1   
    33    15    16 1   
    34    16    17 1   
    35    16    18 1   
    36    16    46 1   
    37    17    47 1   
    38    17    48 1   
    39    17    49 1   
    40    18    19 2   
    41    18    63 1   
    42    20    21 ar  
    43    20    25 ar  
    44    20    63 1   
    45    21    22 ar  
    46    21    50 1   
    47    22    23 ar  
    48    22    51 1   
    49    23    24 ar  
    50    24    25 ar  
    51    24    52 1   
    52    25    53 1   
    53    26    30 1   
    54    27    54 1   
    55    28    29 1   
    56    29    30 2   
    57    29    31 1   
    58    31    55 1   
    59    32    33 1   
    60    33    56 1   
    61    33    57 1   
    62    33    58 1   
    63    34    59 1   
    64    35    36 1   
    65    35    37 2   
    66    35    38 2   
    67    36    60 1   
    68    36    61 1   
    69    36    62 1   
    70    63    66 1   
@<TRIPOS>SUBSTRUCTURE
     1 8QW         1 TEMP              0 ****  ****    0 ROOT
