@<TRIPOS>MOLECULE
8QW
   66    70     1     0     0
SMALL
bcc


@<TRIPOS>ATOM
      1 C1          -2.0960    -0.4670     1.2670 cc         1 8QW       0.015700
      2 C2           0.0570    -0.7910     2.2260 cd         1 8QW      -0.084000
      3 C4           0.6570    -0.0920     1.1480 cd         1 8QW      -0.073000
      4 C6          -0.1540     0.4030     0.1600 cc         1 8QW      -0.031300
      5 C12         -5.9900     0.1190    -0.3850 ca         1 8QW       0.222600
      6 C13         -7.6690    -0.9020     1.0210 ca         1 8QW      -0.024000
      7 C14         -6.3390    -0.6180     0.7430 ca         1 8QW      -0.172000
      8 C15         -8.6550    -0.4440     0.1700 ca         1 8QW      -0.284500
      9 C16         -7.0180     0.5720    -1.2500 ca         1 8QW       0.061100
     10 C36         11.4390    -1.1580    -1.6510 ca         1 8QW       0.142900
     11 C38         11.1370    -1.4430    -0.3350 ca         1 8QW      -0.171000
     12 C37         10.2030    -0.6460     0.3150 ca         1 8QW      -0.083000
     13 C34         10.8440    -0.1100    -2.3270 ca         1 8QW      -0.171000
     14 C35          9.9140     0.6730    -1.6590 ca         1 8QW      -0.083000
     15 C26          9.5810     0.4180    -0.3310 ca         1 8QW      -0.098300
     16 C25          8.5680     1.2520     0.4130 c3         1 8QW      -0.088400
     17 C39          8.7730     2.7600     0.2280 c3         1 8QW      -0.085100
     18 C24          7.1540     0.8950    -0.0300 c          1 8QW       0.676100
     19 O33          6.8570     0.7810    -1.2040 o          1 8QW      -0.568100
     20 C20          4.8960     0.5380     0.9550 ca         1 8QW       0.084600
     21 C22          4.2190     0.5650     2.1770 ca         1 8QW      -0.168000
     22 C21          2.8560     0.3540     2.2390 ca         1 8QW      -0.087000
     23 C10          2.1140     0.1110     1.0830 ca         1 8QW      -0.065000
     24 C19          2.7990     0.0750    -0.1300 ca         1 8QW      -0.087000
     25 C18          4.1670     0.2850    -0.2070 ca         1 8QW      -0.168000
     26 N5          -1.4850     0.2000     0.2420 na         1 8QW       0.212000
     27 C3          -1.2950    -0.9810     2.2960 cc         1 8QW      -0.124000
     28 N8          -3.4080    -0.4800     1.0520 nd         1 8QW      -0.443300
     29 C9          -3.5300     0.1890    -0.1010 cd         1 8QW       0.766200
     30 N7          -2.3980     0.6270    -0.6410 nc         1 8QW      -0.661100
     31 N11         -4.7030     0.4500    -0.7440 nu         1 8QW      -0.682600
     32 O31         -6.5950     1.2680    -2.3200 os         1 8QW      -0.341900
     33 C32         -7.5530     1.7670    -3.2340 c3         1 8QW       0.130700
     34 C17         -8.3400     0.2920    -0.9720 ca         1 8QW      -0.097000
     35 S27        -10.3500    -0.7600     0.5440 sy         1 8QW       1.098300
     36 C30        -10.8230     0.5970     1.5940 c3         1 8QW      -0.226300
     37 O29        -11.1250    -0.6660    -0.6930 o          1 8QW      -0.599800
     38 O28        -10.4350    -1.9900     1.3300 o          1 8QW      -0.599800
     39 H1           0.6860    -1.1990     3.0060 ha         1 8QW       0.147000
     40 H2           0.1920     0.9700    -0.6920 h4         1 8QW       0.185000
     41 H3          -7.9120    -1.4780     1.9030 ha         1 8QW       0.155000
     42 H4          -5.5690    -0.9740     1.4090 ha         1 8QW       0.179000
     43 H6           9.9610    -0.8600     1.3490 ha         1 8QW       0.137000
     44 H7          11.1010     0.0930    -3.3580 ha         1 8QW       0.151500
     45 H8           9.4560     1.4950    -2.1940 ha         1 8QW       0.137000
     46 H9           8.6760     1.0310     1.4790 hc         1 8QW       0.054700
     47 H10          8.0680     3.3240     0.8380 hc         1 8QW       0.047367
     48 H11          9.7800     3.0390     0.5340 hc         1 8QW       0.047367
     49 H12          8.6350     3.0640    -0.8090 hc         1 8QW       0.047367
     50 H14          4.7660     0.7650     3.0910 ha         1 8QW       0.150500
     51 H15          2.3660     0.4040     3.2030 ha         1 8QW       0.135000
     52 H16          2.2640    -0.1430    -1.0460 ha         1 8QW       0.135000
     53 H17          4.6500     0.2390    -1.1690 ha         1 8QW       0.150500
     54 H18         -1.7550    -1.5180     3.1130 ha         1 8QW       0.168000
     55 H19         -4.6020     0.9820    -1.5950 hn         1 8QW       0.476800
     56 H20         -8.1260     0.9600    -3.6980 h1         1 8QW       0.045367
     57 H21         -8.2440     2.4640    -2.7530 h1         1 8QW       0.045367
     58 H22         -6.9980     2.2950    -4.0040 h1         1 8QW       0.045367
     59 H23         -9.1270     0.6310    -1.6320 ha         1 8QW       0.158000
     60 H24        -10.7110     1.5310     1.0480 h1         1 8QW       0.100700
     61 H25        -11.8660     0.4480     1.8730 h1         1 8QW       0.100700
     62 H26        -10.1950     0.6010     2.4820 h1         1 8QW       0.100700
     63 N23          6.2740     0.7630     0.9950 ns         1 8QW      -0.472100
     64 H5          11.6180    -2.2660     0.1770 ha         1 8QW       0.151500
     65 F40         12.3420    -1.9180    -2.2930 f          1 8QW      -0.142900
     66 H13          6.6530     0.8870     1.9220 hn         1 8QW       0.317500
@<TRIPOS>BOND
     1     1    26 1   
     2     1    27 1   
     3     1    28 2   
     4     2     3 1   
     5     2    27 2   
     6     2    39 1   
     7     3     4 2   
     8     3    23 1   
     9     4    26 1   
    10     4    40 1   
    11     5     7 ar  
    12     5     9 ar  
    13     5    31 1   
    14     6     7 ar  
    15     6     8 ar  
    16     6    41 1   
    17     7    42 1   
    18     8    34 ar  
    19     8    35 1   
    20     9    32 1   
    21     9    34 ar  
    22    10    11 ar  
    23    10    13 ar  
    24    10    65 1   
    25    11    12 ar  
    26    11    64 1   
    27    12    15 ar  
    28    12    43 1   
    29    13    14 ar  
    30    13    44 1   
    31    14    15 ar  
    32    14    45 1   
    33    15    16 1   
    34    16    17 1   
    35    16    18 1   
    36    16    46 1   
    37    17    47 1   
    38    17    48 1   
    39    17    49 1   
    40    18    19 2   
    41    18    63 1   
    42    20    21 ar  
    43    20    25 ar  
    44    20    63 1   
    45    21    22 ar  
    46    21    50 1   
    47    22    23 ar  
    48    22    51 1   
    49    23    24 ar  
    50    24    25 ar  
    51    24    52 1   
    52    25    53 1   
    53    26    30 1   
    54    27    54 1   
    55    28    29 1   
    56    29    30 2   
    57    29    31 1   
    58    31    55 1   
    59    32    33 1   
    60    33    56 1   
    61    33    57 1   
    62    33    58 1   
    63    34    59 1   
    64    35    36 1   
    65    35    37 2   
    66    35    38 2   
    67    36    60 1   
    68    36    61 1   
    69    36    62 1   
    70    63    66 1   
@<TRIPOS>SUBSTRUCTURE
     1 8QW         1 TEMP              0 ****  ****    0 ROOT
