@<TRIPOS>MOLECULE
8QX
   57    60     1     0     0
SMALL
No Charge or Current Charge


@<TRIPOS>ATOM
      1 C10         10.0200   -14.4010    14.5080 ca         1 8QX      -0.083000
      2 C15         11.3390   -15.2730    16.3660 ca         1 8QX       0.180000
      3 C22          9.4470   -22.5560    15.5800 c3         1 8QX       0.088000
      4 C24          7.4880   -24.1610    15.1890 c6         1 8QX      -0.072400
      5 C26          5.6370   -23.4600    13.5860 c6         1 8QX       0.177800
      6 C28          5.8110   -21.3920    12.2030 c3         1 8QX       0.196500
      7 C02         11.6520   -22.0980    14.4170 cc         1 8QX       0.514900
      8 N03         12.6020   -21.3350    13.8670 nd         1 8QX      -0.631100
      9 C04         12.3880   -19.9480    13.9330 ca         1 8QX       0.125400
     10 C05         13.3580   -19.1110    13.3540 ca         1 8QX      -0.047000
     11 C06         13.1840   -17.7180    13.4060 ca         1 8QX      -0.133000
     12 C07         12.0520   -17.1880    14.0380 ca         1 8QX       0.560300
     13 O08         11.9010   -15.8200    14.0600 os         1 8QX      -0.354400
     14 C09         11.0930   -15.1800    14.9760 ca         1 8QX       0.082100
     15 C11          9.1840   -13.7330    15.4220 ca         1 8QX      -0.092000
     16 C12          9.4250   -13.8390    16.8030 ca         1 8QX       0.004100
     17 C14         10.5040   -14.6050    17.2760 ca         1 8QX      -0.119000
     18 N17         11.1040   -17.9750    14.5910 nb         1 8QX      -0.677000
     19 C18         11.2730   -19.3320    14.5430 ca         1 8QX       0.266500
     20 C19         10.2370   -20.2380    15.1540 c          1 8QX       0.466500
     21 O20          9.2380   -19.8020    15.7230 o          1 8QX      -0.497000
     22 N21         10.4730   -21.6220    15.0210 n          1 8QX      -0.335300
     23 C23          8.4000   -23.0810    14.5520 c6         1 8QX      -0.083700
     24 C25          6.4370   -24.6480    14.1670 c6         1 8QX      -0.074400
     25 N27          6.5390   -22.4460    12.9660 n3         1 8QX      -0.742600
     26 C29          4.9460   -20.4510    13.0790 c3         1 8QX      -0.106100
     27 C30          6.7480   -20.5750    11.2840 c3         1 8QX      -0.106100
     28 C31          7.5400   -21.9340    13.9520 c6         1 8QX       0.178800
     29 Br1          8.2870   -12.9290    18.0420 br         1 8QX      -0.084100
     30 F16         12.3890   -15.9880    16.8340 f          1 8QX      -0.161000
     31 H1           9.8350   -14.3200    13.4400 ha         1 8QX       0.133000
     32 H2           8.9080   -22.0750    16.4070 h1         1 8QX       0.068700
     33 H3           9.9500   -23.4180    16.0340 h1         1 8QX       0.068700
     34 H4           6.9790   -23.7500    16.0730 hc         1 8QX       0.040200
     35 H5           8.0900   -25.0110    15.5370 hc         1 8QX       0.040200
     36 H6           5.0450   -23.0060    14.3940 h1         1 8QX       0.030700
     37 H7           4.9270   -23.8460    12.8400 h1         1 8QX       0.030700
     38 H8           5.1140   -21.9030    11.5250 h1         1 8QX       0.049700
     39 H9          12.8690   -23.7990    13.8560 hc         1 8QX       0.067700
     40 H10         12.0180   -23.9920    15.3860 hc         1 8QX       0.067700
     41 H11         11.1400   -24.1230    13.8440 hc         1 8QX       0.067700
     42 H12         14.2340   -19.5370    12.8720 ha         1 8QX       0.143000
     43 H13         13.9170   -17.0490    12.9650 ha         1 8QX       0.145000
     44 H14          8.3500   -13.1350    15.0590 ha         1 8QX       0.136000
     45 H15         10.6970   -14.6800    18.3430 ha         1 8QX       0.149000
     46 H16          8.9570   -23.5450    13.7290 hc         1 8QX       0.059700
     47 H17          5.7500   -25.3600    14.6450 hc         1 8QX       0.046200
     48 H18          6.9340   -25.1900    13.3510 hc         1 8QX       0.046200
     49 H20          4.2120   -21.0140    13.6650 hc         1 8QX       0.038033
     50 H21          5.5660   -19.8650    13.7670 hc         1 8QX       0.038033
     51 H22          4.3910   -19.7480    12.4460 hc         1 8QX       0.038033
     52 H23          6.1610   -19.9590    10.5930 hc         1 8QX       0.038033
     53 H24          7.3970   -19.9060    11.8600 hc         1 8QX       0.038033
     54 H25          7.3800   -21.2440    10.6860 hc         1 8QX       0.038033
     55 H26          8.2170   -21.2160    13.4700 h1         1 8QX       0.042200
     56 H27          7.0340   -21.4020    14.7720 h1         1 8QX       0.042200
     57 C01         11.9280   -23.5810    14.3750 c3         1 8QX      -0.140400
@<TRIPOS>BOND
     1     1    14 ar  
     2     1    15 ar  
     3     1    31 1   
     4     2    14 ar  
     5     2    17 ar  
     6     2    30 1   
     7     3    22 1   
     8     3    23 1   
     9     3    32 1   
    10     3    33 1   
    11     4    23 1   
    12     4    24 1   
    13     4    34 1   
    14     4    35 1   
    15     5    24 1   
    16     5    25 1   
    17     5    36 1   
    18     5    37 1   
    19     6    25 1   
    20     6    26 1   
    21     6    27 1   
    22     6    38 1   
    23     7     8 2   
    24     7    22 1   
    25     7    57 1   
    26     8     9 1   
    27     9    10 ar  
    28     9    19 ar  
    29    10    11 ar  
    30    10    42 1   
    31    11    12 ar  
    32    11    43 1   
    33    12    13 1   
    34    12    18 ar  
    35    13    14 1   
    36    15    16 ar  
    37    15    44 1   
    38    16    17 ar  
    39    16    29 1   
    40    17    45 1   
    41    18    19 ar  
    42    19    20 1   
    43    20    21 2   
    44    20    22 1   
    45    23    28 1   
    46    23    46 1   
    47    24    47 1   
    48    24    48 1   
    49    25    28 1   
    50    26    49 1   
    51    26    50 1   
    52    26    51 1   
    53    27    52 1   
    54    27    53 1   
    55    27    54 1   
    56    28    55 1   
    57    28    56 1   
    58    39    57 1   
    59    40    57 1   
    60    41    57 1   
@<TRIPOS>SUBSTRUCTURE
     1 8QX         1 TEMP              0 ****  ****    0 ROOT
