@<TRIPOS>MOLECULE
8QX
   57    60     1     0     0
SMALL
bcc


@<TRIPOS>ATOM
      1 C10          9.7650   -14.8030    14.5600 ca         1 8QX      -0.101000
      2 C15         11.0990   -15.5250    16.4010 ca         1 8QX       0.144900
      3 C22          9.5410   -22.5270    15.6090 c3         1 8QX       0.088000
      4 C24          7.4760   -23.9010    15.3550 c6         1 8QX      -0.072400
      5 C26          5.6860   -23.1080    13.7840 c6         1 8QX       0.177800
      6 C28          6.0960   -21.2760    12.2240 c3         1 8QX       0.196500
      7 C02         11.5720   -22.0790    14.2730 cc         1 8QX       0.514900
      8 N03         12.4170   -21.3160    13.6690 nd         1 8QX      -0.631100
      9 C04         12.2710   -19.9630    13.7800 ca         1 8QX       0.060100
     10 C05         13.1590   -19.0970    13.1090 ca         1 8QX      -0.065000
     11 C06         13.0050   -17.7460    13.2420 ca         1 8QX      -0.216300
     12 C07         11.9510   -17.2850    14.0560 ca         1 8QX       0.625600
     13 O08         11.8210   -15.9410    14.1590 os         1 8QX      -0.354400
     14 C09         10.8930   -15.4460    15.0320 ca         1 8QX       0.082100
     15 C11          8.8560   -14.2350    15.4430 ca         1 8QX      -0.110000
     16 C12          9.0880   -14.3320    16.8060 ca         1 8QX       0.004100
     17 C14         10.2130   -14.9770    17.3030 ca         1 8QX      -0.137000
     18 N17         11.1180   -18.0560    14.6810 nb         1 8QX      -0.677000
     19 C18         11.2730   -19.3800    14.5480 ca         1 8QX       0.331800
     20 C19         10.3240   -20.2440    15.2460 c          1 8QX       0.609000
     21 O20          9.4320   -19.8270    15.9570 o          1 8QX      -0.572500
     22 N21         10.5200   -21.6040    15.0220 n          1 8QX      -0.402300
     23 C23          8.4440   -22.9610    14.6390 c6         1 8QX      -0.083700
     24 C25          6.3500   -24.3200    14.4190 c6         1 8QX      -0.074400
     25 N27          6.6720   -22.2900    13.1040 n3         1 8QX      -0.742600
     26 C29          5.4620   -20.0830    12.9440 c3         1 8QX      -0.106100
     27 C30          7.1120   -20.8030    11.1900 c3         1 8QX      -0.106100
     28 C31          7.6700   -21.7950    14.0300 c6         1 8QX       0.178800
     29 BR1          7.8620   -13.5710    18.0170 br         1 8QX      -0.084100
     30 F16         12.1910   -16.1470    16.8510 f          1 8QX      -0.125900
     31 H1           9.5940   -14.7380    13.4930 ha         1 8QX       0.151000
     32 H2           9.1070   -22.0320    16.4750 h1         1 8QX       0.068700
     33 H3          10.0680   -23.4020    15.9850 h1         1 8QX       0.068700
     34 H4           7.0570   -23.3850    16.2270 hc         1 8QX       0.040200
     35 H5           8.0060   -24.7790    15.7340 hc         1 8QX       0.040200
     36 H6           5.1390   -22.5480    14.5630 h1         1 8QX       0.030700
     37 H7           4.9400   -23.4370    13.0560 h1         1 8QX       0.030700
     38 H8           5.3000   -21.7900    11.6740 h1         1 8QX       0.049700
     39 H9          12.6080   -23.7480    13.5080 hc         1 8QX       0.067700
     40 H10         12.0260   -23.9770    15.1580 hc         1 8QX       0.067700
     41 H11         10.9020   -24.0840    13.8100 hc         1 8QX       0.067700
     42 H12         13.9520   -19.5120    12.5020 ha         1 8QX       0.161000
     43 H13         13.6660   -17.0480    12.7460 ha         1 8QX       0.163000
     44 H14          7.9800   -13.7330    15.0570 ha         1 8QX       0.154000
     45 H15         10.4100   -15.0580    18.3640 ha         1 8QX       0.167000
     46 H16          8.8950   -23.5110    13.8050 hc         1 8QX       0.059700
     47 H17          5.6040   -24.9070    14.9600 hc         1 8QX       0.046200
     48 H18          6.7530   -24.9610    13.6290 hc         1 8QX       0.046200
     49 H20          4.7270   -20.3950    13.6870 hc         1 8QX       0.038033
     50 H21          6.2110   -19.4710    13.4500 hc         1 8QX       0.038033
     51 H22          4.9490   -19.4400    12.2270 hc         1 8QX       0.038033
     52 H23          6.6210   -20.1890    10.4340 hc         1 8QX       0.038033
     53 H24          7.9010   -20.1920    11.6310 hc         1 8QX       0.038033
     54 H25          7.5810   -21.6500    10.6890 hc         1 8QX       0.038033
     55 H26          8.3560   -21.1430    13.4860 h1         1 8QX       0.042200
     56 H27          7.2260   -21.1910    14.8380 h1         1 8QX       0.042200
     57 C01         11.7780   -23.5560    14.1820 c3         1 8QX      -0.140400
@<TRIPOS>BOND
     1     1    14 ar  
     2     1    15 ar  
     3     1    31 1   
     4     2    14 ar  
     5     2    17 ar  
     6     2    30 1   
     7     3    22 1   
     8     3    23 1   
     9     3    32 1   
    10     3    33 1   
    11     4    23 1   
    12     4    24 1   
    13     4    34 1   
    14     4    35 1   
    15     5    24 1   
    16     5    25 1   
    17     5    36 1   
    18     5    37 1   
    19     6    25 1   
    20     6    26 1   
    21     6    27 1   
    22     6    38 1   
    23     7     8 2   
    24     7    22 1   
    25     7    57 1   
    26     8     9 1   
    27     9    10 ar  
    28     9    19 ar  
    29    10    11 ar  
    30    10    42 1   
    31    11    12 ar  
    32    11    43 1   
    33    12    13 1   
    34    12    18 ar  
    35    13    14 1   
    36    15    16 ar  
    37    15    44 1   
    38    16    17 ar  
    39    16    29 1   
    40    17    45 1   
    41    18    19 ar  
    42    19    20 1   
    43    20    21 2   
    44    20    22 1   
    45    23    28 1   
    46    23    46 1   
    47    24    47 1   
    48    24    48 1   
    49    25    28 1   
    50    26    49 1   
    51    26    50 1   
    52    26    51 1   
    53    27    52 1   
    54    27    53 1   
    55    27    54 1   
    56    28    55 1   
    57    28    56 1   
    58    39    57 1   
    59    40    57 1   
    60    41    57 1   
@<TRIPOS>SUBSTRUCTURE
     1 8QX         1 TEMP              0 ****  ****    0 ROOT
