@<TRIPOS>MOLECULE
8QY
   52    53     1     0     0
SMALL
No Charge or Current Charge


@<TRIPOS>ATOM
      1 C02        110.7120   140.8370   136.7810 c          1 8QY       0.641100
      2 C04        110.2200   140.4950   139.2160 c3         1 8QY       0.122700
      3 C05        111.4000   139.5890   139.6550 c3         1 8QY      -0.044100
      4 C06        111.1940   138.1190   139.3740 cc         1 8QY      -0.103300
      5 C07        111.4580   137.4810   138.1890 cd         1 8QY      -0.252000
      6 C09        110.5700   135.9310   139.9420 cd         1 8QY      -0.244000
      7 C10        110.6950   137.2290   140.3610 cc         1 8QY      -0.129000
      8 C11        108.9410   140.2560   140.0440 c3         1 8QY      -0.101100
      9 C13        111.0470   140.6440   134.3070 c3         1 8QY       0.118000
     10 C14        112.3430   139.7800   134.2030 c3         1 8QY       0.153500
     11 C15        113.1050   140.0830   132.8790 c3         1 8QY      -0.053100
     12 C16        113.5070   141.5480   132.7390 ca         1 8QY      -0.119300
     13 C17        114.5170   142.0860   133.5610 ca         1 8QY      -0.066000
     14 C18        114.8850   143.4380   133.4400 ca         1 8QY      -0.171000
     15 C19        114.2460   144.2570   132.4960 ca         1 8QY       0.139100
     16 C21        113.2420   143.7270   131.6730 ca         1 8QY      -0.171000
     17 C22        112.8720   142.3760   131.7920 ca         1 8QY      -0.066000
     18 N03        109.9310   140.3420   137.7890 ns         1 8QY      -0.501900
     19 N12        110.3000   140.4130   135.5500 ns         1 8QY      -0.497900
     20 N23        112.1010   138.3160   134.4410 n3         1 8QY      -0.744600
     21 O01        111.6670   141.5740   136.9610 o          1 8QY      -0.646100
     22 O20        114.5970   145.5680   132.3720 oh         1 8QY      -0.534100
     23 S08        111.0820   135.7520   138.2580 ss         1 8QY       0.177000
     24 H1         110.5240   141.5380   139.3850 h1         1 8QY       0.079700
     25 H2         112.3110   139.9260   139.1450 hc         1 8QY       0.061200
     26 H3         111.5880   139.7430   140.7240 hc         1 8QY       0.061200
     27 H4         111.8380   137.9120   137.2700 h4         1 8QY       0.172000
     28 H5         110.2150   135.0740   140.5010 h4         1 8QY       0.149000
     29 H6         110.4340   137.5640   141.3620 ha         1 8QY       0.132000
     30 H7         109.1420   140.3940   141.1130 hc         1 8QY       0.041700
     31 H8         108.1560   140.9640   139.7520 hc         1 8QY       0.041700
     32 H9         108.5580   139.2390   139.8940 hc         1 8QY       0.041700
     33 H10        111.3100   141.7080   134.2550 h1         1 8QY       0.058200
     34 H11        110.3880   140.4270   133.4570 h1         1 8QY       0.058200
     35 H12        112.9920   140.1390   135.0140 h1         1 8QY       0.081700
     36 H13        112.4860   139.7800   132.0260 hc         1 8QY       0.047200
     37 H14        114.0100   139.4680   132.8270 hc         1 8QY       0.047200
     38 H15        115.0170   141.4570   134.2950 ha         1 8QY       0.111500
     39 H16        115.6660   143.8390   134.0820 ha         1 8QY       0.120500
     40 H17        112.7470   144.3620   130.9430 ha         1 8QY       0.120500
     41 H18        112.0900   141.9760   131.1500 ha         1 8QY       0.111500
     42 H19        110.2600   138.1780   133.3530 h1         1 8QY       0.030533
     43 H20        111.6930   137.6030   132.4650 h1         1 8QY       0.030533
     44 H21        110.9950   136.6220   133.7710 h1         1 8QY       0.030533
     45 H22        113.9360   138.0250   135.4920 h1         1 8QY       0.030533
     46 H23        113.0740   136.5310   135.0770 h1         1 8QY       0.030533
     47 H24        113.9450   137.4260   133.8150 h1         1 8QY       0.030533
     48 H25        109.1730   139.7300   137.5240 hn         1 8QY       0.295500
     49 H26        109.5150   139.7780   135.5200 hn         1 8QY       0.298500
     50 H28        115.3080   145.7610   133.0200 ho         1 8QY       0.465000
     51 C24        111.2170   137.6500   133.4540 c3         1 8QY       0.156100
     52 C25        113.3300   137.5360   134.7180 c3         1 8QY       0.156100
@<TRIPOS>BOND
     1     1    18 1   
     2     1    19 1   
     3     1    21 2   
     4     2     3 1   
     5     2     8 1   
     6     2    18 1   
     7     2    24 1   
     8     3     4 1   
     9     3    25 1   
    10     3    26 1   
    11     4     5 2   
    12     4     7 1   
    13     5    23 1   
    14     5    27 1   
    15     6     7 2   
    16     6    23 1   
    17     6    28 1   
    18     7    29 1   
    19     8    30 1   
    20     8    31 1   
    21     8    32 1   
    22     9    10 1   
    23     9    19 1   
    24     9    33 1   
    25     9    34 1   
    26    10    11 1   
    27    10    20 1   
    28    10    35 1   
    29    11    12 1   
    30    11    36 1   
    31    11    37 1   
    32    12    13 ar  
    33    12    17 ar  
    34    13    14 ar  
    35    13    38 1   
    36    14    15 ar  
    37    14    39 1   
    38    15    16 ar  
    39    15    22 1   
    40    16    17 ar  
    41    16    40 1   
    42    17    41 1   
    43    18    48 1   
    44    19    49 1   
    45    20    51 1   
    46    20    52 1   
    47    22    50 1   
    48    42    51 1   
    49    43    51 1   
    50    44    51 1   
    51    45    52 1   
    52    46    52 1   
    53    47    52 1   
@<TRIPOS>SUBSTRUCTURE
     1 8QY         1 TEMP              0 ****  ****    0 ROOT
