@<TRIPOS>MOLECULE
8QY
   52    53     1     0     0
SMALL
bcc


@<TRIPOS>ATOM
      1 C02        110.6620   140.8570   136.7910 c          1 8QY       0.775100
      2 C04        110.3310   140.4380   139.1880 c3         1 8QY       0.122700
      3 C05        111.4620   139.4220   139.4450 c3         1 8QY      -0.044100
      4 C06        111.0650   138.0080   139.1540 cc         1 8QY      -0.103300
      5 C07        111.0750   137.4440   137.9100 cd         1 8QY      -0.125100
      6 C09        110.2420   135.8790   139.6240 cd         1 8QY      -0.117100
      7 C10        110.5790   137.0930   140.1370 cc         1 8QY      -0.147000
      8 C11        109.1370   140.2220   140.1070 c3         1 8QY      -0.101100
      9 C13        111.0920   140.6840   134.3890 c3         1 8QY       0.118000
     10 C14        112.4020   139.8820   134.3480 c3         1 8QY       0.153500
     11 C15        113.1040   140.0930   132.9900 c3         1 8QY      -0.053100
     12 C16        113.4920   141.5240   132.7440 ca         1 8QY      -0.119300
     13 C17        114.5260   142.1200   133.4630 ca         1 8QY      -0.084000
     14 C18        114.8780   143.4470   133.2670 ca         1 8QY      -0.189000
     15 C19        114.1920   144.2200   132.3330 ca         1 8QY       0.139100
     16 C21        113.1570   143.6420   131.6040 ca         1 8QY      -0.189000
     17 C22        112.8200   142.3130   131.8140 ca         1 8QY      -0.084000
     18 N03        109.8770   140.4060   137.8120 ns         1 8QY      -0.568900
     19 N12        110.2710   140.4540   135.5510 ns         1 8QY      -0.564900
     20 N23        112.1940   138.4900   134.7110 n3         1 8QY      -0.744600
     21 O01        111.6160   141.6070   136.9730 o          1 8QY      -0.646100
     22 O20        114.4880   145.5150   132.0940 oh         1 8QY      -0.495100
     23 S08        110.5080   135.8260   137.9310 ss         1 8QY      -0.112800
     24 H1         110.7380   141.4310   139.3840 h1         1 8QY       0.079700
     25 H2         112.3220   139.7040   138.8350 hc         1 8QY       0.061200
     26 H3         111.7780   139.5130   140.4880 hc         1 8QY       0.061200
     27 H4         111.3880   137.8950   136.9750 h4         1 8QY       0.190000
     28 H5         109.8570   135.0180   140.1470 h4         1 8QY       0.167000
     29 H6         110.4910   137.3390   141.1870 ha         1 8QY       0.150000
     30 H7         109.4530   140.2410   141.1500 hc         1 8QY       0.041700
     31 H8         108.3920   141.0050   139.9630 hc         1 8QY       0.041700
     32 H9         108.6580   139.2590   139.9220 hc         1 8QY       0.041700
     33 H10        111.3340   141.7440   134.3190 h1         1 8QY       0.058200
     34 H11        110.4790   140.4600   133.5130 h1         1 8QY       0.058200
     35 H12        113.0550   140.2970   135.1220 h1         1 8QY       0.081700
     36 H13        112.4550   139.7480   132.1810 hc         1 8QY       0.047200
     37 H14        113.9980   139.4640   132.9600 hc         1 8QY       0.047200
     38 H15        115.0760   141.5360   134.1920 ha         1 8QY       0.129500
     39 H16        115.6900   143.8800   133.8420 ha         1 8QY       0.138500
     40 H17        112.6190   144.2330   130.8730 ha         1 8QY       0.138500
     41 H18        112.0090   141.8820   131.2370 ha         1 8QY       0.129500
     42 H19        110.4610   138.2190   133.5490 h1         1 8QY       0.030533
     43 H20        111.9050   137.4930   132.8340 h1         1 8QY       0.030533
     44 H21        111.1410   136.7580   134.2440 h1         1 8QY       0.030533
     45 H22        113.9710   138.3770   135.8020 h1         1 8QY       0.030533
     46 H23        113.1690   136.8340   135.5190 h1         1 8QY       0.030533
     47 H24        114.0820   137.5970   134.2160 h1         1 8QY       0.030533
     48 H25        109.2110   139.6780   137.6000 hn         1 8QY       0.295500
     49 H26        109.6220   139.6860   135.4890 hn         1 8QY       0.298500
     50 H28        115.2180   145.8020   132.6540 ho         1 8QY       0.426000
     51 C24        111.3980   137.7140   133.7850 c3         1 8QY       0.156100
     52 C25        113.4120   137.7980   135.0660 c3         1 8QY       0.156100
@<TRIPOS>BOND
     1     1    18 1   
     2     1    19 1   
     3     1    21 2   
     4     2     3 1   
     5     2     8 1   
     6     2    18 1   
     7     2    24 1   
     8     3     4 1   
     9     3    25 1   
    10     3    26 1   
    11     4     5 2   
    12     4     7 1   
    13     5    23 1   
    14     5    27 1   
    15     6     7 2   
    16     6    23 1   
    17     6    28 1   
    18     7    29 1   
    19     8    30 1   
    20     8    31 1   
    21     8    32 1   
    22     9    10 1   
    23     9    19 1   
    24     9    33 1   
    25     9    34 1   
    26    10    11 1   
    27    10    20 1   
    28    10    35 1   
    29    11    12 1   
    30    11    36 1   
    31    11    37 1   
    32    12    13 ar  
    33    12    17 ar  
    34    13    14 ar  
    35    13    38 1   
    36    14    15 ar  
    37    14    39 1   
    38    15    16 ar  
    39    15    22 1   
    40    16    17 ar  
    41    16    40 1   
    42    17    41 1   
    43    18    48 1   
    44    19    49 1   
    45    20    51 1   
    46    20    52 1   
    47    22    50 1   
    48    42    51 1   
    49    43    51 1   
    50    44    51 1   
    51    45    52 1   
    52    46    52 1   
    53    47    52 1   
@<TRIPOS>SUBSTRUCTURE
     1 8QY         1 TEMP              0 ****  ****    0 ROOT
