@<TRIPOS>MOLECULE
8R0
   37    39     1     0     0
SMALL
abcg2


@<TRIPOS>ATOM
      1 C4           0.6230     0.1470    -1.4990 c          1 8R0       0.584600
      2 C7          -0.1950    -1.4580     0.2070 c3         1 8R0       0.037700
      3 C8          -0.6940    -0.4690     1.2780 c3         1 8R0      -0.041100
      4 C10         -2.0850     1.3640     0.2600 ca         1 8R0      -0.102500
      5 C13         -4.4120    -0.0930     0.6300 ca         1 8R0      -0.107500
      6 C15          1.0990    -2.1580     0.5870 c          1 8R0       0.563000
      7 C20          3.5240     1.9720     1.0640 ca         1 8R0      -0.062000
      8 C12         -4.4680     1.1500     0.0130 ca         1 8R0      -0.106000
      9 C11         -3.3010     1.8800    -0.1690 ca         1 8R0      -0.107500
     10 C14         -3.1950    -0.6060     1.0550 ca         1 8R0      -0.102500
     11 C9          -2.0170     0.1160     0.8730 ca         1 8R0      -0.088300
     12 O16          1.1210    -3.3300     0.9050 o          1 8R0      -0.533000
     13 N17          2.2330    -1.4130     0.5500 ns         1 8R0      -0.146000
     14 C18          2.3570    -0.0320     0.3880 ca         1 8R0       0.008000
     15 C19          3.3290     0.6080     1.1590 ca         1 8R0      -0.166000
     16 C1           2.7480     2.7260     0.1930 ca         1 8R0      -0.140000
     17 C2           1.8070     2.0920    -0.5940 ca         1 8R0      -0.042000
     18 C3           1.5930     0.7130    -0.5170 ca         1 8R0      -0.173600
     19 O5           0.5210     0.6710    -2.6010 o          1 8R0      -0.557000
     20 N6          -0.1160    -0.9250    -1.1440 n          1 8R0      -0.394800
     21 C23         -1.0390    -1.5040    -2.1050 c3         1 8R0       0.083300
     22 H1          -0.9340    -2.2570     0.1650 h1         1 8R0       0.088700
     23 H2          -0.7890    -1.0280     2.2120 hc         1 8R0       0.064200
     24 H3           0.0290     0.3260     1.4590 hc         1 8R0       0.064200
     25 H5          -5.3190    -0.6640     0.7820 ha         1 8R0       0.115000
     26 H6           4.2780     2.4470     1.6780 ha         1 8R0       0.119000
     27 H7          -5.4170     1.5510    -0.3170 ha         1 8R0       0.114000
     28 H8          -3.3350     2.8520    -0.6430 ha         1 8R0       0.115000
     29 H9          -3.1590    -1.5770     1.5360 ha         1 8R0       0.113000
     30 H10          3.0570    -1.8900     0.8930 hn         1 8R0       0.158000
     31 H11          3.9260     0.0230     1.8470 ha         1 8R0       0.119000
     32 H12          2.8850     3.7960     0.1190 ha         1 8R0       0.123000
     33 H13          1.2220     2.6720    -1.2950 ha         1 8R0       0.137000
     34 H16         -0.7630    -1.2230    -3.1150 h1         1 8R0       0.050367
     35 H14         -1.0120    -2.5900    -2.0270 h1         1 8R0       0.050367
     36 H15         -2.0610    -1.1690    -1.9150 h1         1 8R0       0.050367
     37 H4          -1.1790     1.9440     0.1260 ha         1 8R0       0.113000
@<TRIPOS>BOND
     1     1    18 1   
     2     1    19 2   
     3     1    20 1   
     4     2     3 1   
     5     2     6 1   
     6     2    20 1   
     7     2    22 1   
     8     3    11 1   
     9     3    23 1   
    10     3    24 1   
    11     4     9 ar  
    12     4    11 ar  
    13     4    37 1   
    14     5     8 ar  
    15     5    10 ar  
    16     5    25 1   
    17     6    12 2   
    18     6    13 1   
    19     7    15 ar  
    20     7    16 ar  
    21     7    26 1   
    22     8     9 ar  
    23     8    27 1   
    24     9    28 1   
    25    10    11 ar  
    26    10    29 1   
    27    13    14 1   
    28    13    30 1   
    29    14    15 ar  
    30    14    18 ar  
    31    15    31 1   
    32    16    17 ar  
    33    16    32 1   
    34    17    18 ar  
    35    17    33 1   
    36    20    21 1   
    37    21    34 1   
    38    21    35 1   
    39    21    36 1   
@<TRIPOS>SUBSTRUCTURE
     1 8R0         1 TEMP              0 ****  ****    0 ROOT
