@<TRIPOS>MOLECULE
8R0
   37    39     1     0     0
SMALL
No Charge or Current Charge


@<TRIPOS>ATOM
      1 C4           0.6910     0.2320    -1.4830 c          1 8R0       0.584600
      2 C7          -0.1800    -1.4410     0.2560 c3         1 8R0       0.037700
      3 C8          -0.8180    -0.4950     1.3060 c3         1 8R0      -0.041100
      4 C10         -2.2970     1.3470     0.3600 ca         1 8R0      -0.102500
      5 C13         -4.5670    -0.3010     0.5110 ca         1 8R0      -0.107500
      6 C15          1.1260    -2.0900     0.7490 c          1 8R0       0.563000
      7 C20          3.8160     1.9650     0.9960 ca         1 8R0      -0.062000
      8 C12         -4.6820     1.0060     0.0090 ca         1 8R0      -0.106000
      9 C11         -3.5460     1.8300    -0.0670 ca         1 8R0      -0.107500
     10 C14         -3.3180    -0.7840     0.9370 ca         1 8R0      -0.102500
     11 C9          -2.1760     0.0380     0.8650 ca         1 8R0      -0.088300
     12 O16          1.1520    -3.2390     1.1760 o          1 8R0      -0.533000
     13 N17          2.2900    -1.3740     0.6010 ns         1 8R0      -0.146000
     14 C18          2.4860     0.0040     0.3880 ca         1 8R0       0.008000
     15 C19          3.5170     0.6040     1.1370 ca         1 8R0      -0.166000
     16 C1           3.0910     2.7400     0.0840 ca         1 8R0      -0.140000
     17 C2           2.0770     2.1500    -0.6860 ca         1 8R0      -0.042000
     18 C3           1.7490     0.7790    -0.5460 ca         1 8R0      -0.173600
     19 O5           0.5600     0.7370    -2.5920 o          1 8R0      -0.557000
     20 N6          -0.1350    -0.8560    -1.1160 n          1 8R0      -0.394800
     21 C23         -1.1430    -1.3540    -2.0880 c3         1 8R0       0.083300
     22 H1          -0.8660    -2.2960     0.2080 h1         1 8R0       0.088700
     23 H2          -0.9250    -1.0360     2.2540 hc         1 8R0       0.064200
     24 H3          -0.1350     0.3380     1.5140 hc         1 8R0       0.064200
     25 H5          -5.4460    -0.9400     0.5690 ha         1 8R0       0.115000
     26 H6           4.6100     2.4170     1.5880 ha         1 8R0       0.119000
     27 H7          -5.6490     1.3800    -0.3220 ha         1 8R0       0.114000
     28 H8          -3.6330     2.8410    -0.4580 ha         1 8R0       0.115000
     29 H9          -3.2370    -1.7990     1.3220 ha         1 8R0       0.113000
     30 H10          3.1220    -1.8720     0.8860 hn         1 8R0       0.158000
     31 H11          4.0910     0.0080     1.8440 ha         1 8R0       0.119000
     32 H12          3.3200     3.7960    -0.0360 ha         1 8R0       0.123000
     33 H13          1.5390     2.7710    -1.4000 ha         1 8R0       0.137000
     34 H16         -0.6740    -1.5100    -3.0680 h1         1 8R0       0.050367
     35 H14         -1.5770    -2.3060    -1.7600 h1         1 8R0       0.050367
     36 H15         -1.9480    -0.6150    -2.1900 h1         1 8R0       0.050367
     37 H4          -1.4220     1.9900     0.2910 ha         1 8R0       0.113000
@<TRIPOS>BOND
     1     1    18 1   
     2     1    19 2   
     3     1    20 1   
     4     2     3 1   
     5     2     6 1   
     6     2    20 1   
     7     2    22 1   
     8     3    11 1   
     9     3    23 1   
    10     3    24 1   
    11     4     9 ar  
    12     4    11 ar  
    13     4    37 1   
    14     5     8 ar  
    15     5    10 ar  
    16     5    25 1   
    17     6    12 2   
    18     6    13 1   
    19     7    15 ar  
    20     7    16 ar  
    21     7    26 1   
    22     8     9 ar  
    23     8    27 1   
    24     9    28 1   
    25    10    11 ar  
    26    10    29 1   
    27    13    14 1   
    28    13    30 1   
    29    14    15 ar  
    30    14    18 ar  
    31    15    31 1   
    32    16    17 ar  
    33    16    32 1   
    34    17    18 ar  
    35    17    33 1   
    36    20    21 1   
    37    21    34 1   
    38    21    35 1   
    39    21    36 1   
@<TRIPOS>SUBSTRUCTURE
     1 8R0         1 TEMP              0 ****  ****    0 ROOT
