@<TRIPOS>MOLECULE
8R1
   17    16     1     0     0
SMALL
bcc


@<TRIPOS>ATOM
      1 C01        -17.1850    -1.8510   -34.2050 c3         1 8R1      -0.088100
      2 C02        -16.3200    -1.3030   -35.3330 c3         1 8R1      -0.109400
      3 C03        -15.8400    -2.3640   -36.3320 c3         1 8R1       0.078500
      4 C04        -14.9800    -3.3940   -35.6120 c          1 8R1       0.682100
      5 N06        -15.5450    -4.5940   -35.4170 nt         1 8R1      -0.672000
      6 N07        -15.0630    -1.8350   -37.4420 n8         1 8R1      -0.869800
      7 O05        -13.8520    -3.1140   -35.2300 o          1 8R1      -0.608100
      8 H1         -17.5730    -1.0420   -33.5870 hc         1 8R1       0.036367
      9 H2         -18.0390    -2.4070   -34.5950 hc         1 8R1       0.036367
     10 H3         -16.6290    -2.5210   -33.5470 hc         1 8R1       0.036367
     11 H4         -15.4480    -0.7830   -34.9240 hc         1 8R1       0.048700
     12 H5         -16.8870    -0.5560   -35.8960 hc         1 8R1       0.048700
     13 H6         -16.7230    -2.8580   -36.7520 h1         1 8R1       0.058700
     14 H7         -15.0500    -5.3210   -34.9260 hn         1 8R1       0.313500
     15 H8         -16.4680    -4.8060   -35.7530 hn         1 8R1       0.313500
     16 H9         -15.6160    -1.1370   -37.9250 hn         1 8R1       0.348800
     17 H10        -14.2550    -1.3440   -37.0760 hn         1 8R1       0.348800
@<TRIPOS>BOND
     1     1     2 1   
     2     1     8 1   
     3     1     9 1   
     4     1    10 1   
     5     2     3 1   
     6     2    11 1   
     7     2    12 1   
     8     3     4 1   
     9     3     6 1   
    10     3    13 1   
    11     4     5 1   
    12     4     7 2   
    13     5    14 1   
    14     5    15 1   
    15     6    16 1   
    16     6    17 1   
@<TRIPOS>SUBSTRUCTURE
     1 8R1         1 TEMP              0 ****  ****    0 ROOT
