@<TRIPOS>MOLECULE
8R1
   17    16     1     0     0
SMALL
No Charge or Current Charge


@<TRIPOS>ATOM
      1 C01        -17.2120    -1.4390   -34.0880 c3         1 8R1      -0.088100
      2 C02        -16.2770    -1.2170   -35.2980 c3         1 8R1      -0.109400
      3 C03        -15.9820    -2.5030   -36.1190 c3         1 8R1       0.078500
      4 C04        -15.1550    -3.5930   -35.3290 c          1 8R1       0.615100
      5 N06        -15.0530    -4.7960   -35.9390 nt         1 8R1      -0.605000
      6 N07        -15.3840    -2.1090   -37.4380 n8         1 8R1      -0.980200
      7 O05        -14.6000    -3.4120   -34.2550 o          1 8R1      -0.608100
      8 H1         -17.4130    -0.4860   -33.5840 hc         1 8R1       0.036367
      9 H2         -18.1710    -1.8610   -34.4120 hc         1 8R1       0.036367
     10 H3         -16.7660    -2.1190   -33.3540 hc         1 8R1       0.036367
     11 H4         -15.3350    -0.7770   -34.9490 hc         1 8R1       0.048700
     12 H5         -16.7490    -0.4710   -35.9500 hc         1 8R1       0.048700
     13 H6         -16.9500    -2.9740   -36.3440 h1         1 8R1       0.058700
     14 H7         -14.5220    -5.5320   -35.5010 hn         1 8R1       0.313500
     15 H8         -15.4700    -4.9260   -36.8490 hn         1 8R1       0.313500
     16 H9         -15.9560    -1.3680   -37.8640 hn         1 8R1       0.404000
     17 H10        -14.4790    -1.6490   -37.2780 hn         1 8R1       0.404000
@<TRIPOS>BOND
     1     1     2 1   
     2     1     8 1   
     3     1     9 1   
     4     1    10 1   
     5     2     3 1   
     6     2    11 1   
     7     2    12 1   
     8     3     4 1   
     9     3     6 1   
    10     3    13 1   
    11     4     5 1   
    12     4     7 2   
    13     5    14 1   
    14     5    15 1   
    15     6    16 1   
    16     6    17 1   
@<TRIPOS>SUBSTRUCTURE
     1 8R1         1 TEMP              0 ****  ****    0 ROOT
