@<TRIPOS>MOLECULE
8R2
   43    45     1     0     0
SMALL
No Charge or Current Charge


@<TRIPOS>ATOM
      1 CAM         -2.6010    -0.4630    -0.2810 ca         1 8R2      -0.092000
      2 CAY         -3.8510     0.0700     0.0610 ca         1 8R2      -0.011800
      3 CAW         -4.3350     1.4210     0.0130 cc         1 8R2      -0.164900
      4 CAF         -3.6310     2.5830    -0.4020 cg         1 8R2       0.331700
      5 NAA         -3.0320     3.5210    -0.7540 n1         1 8R2      -0.495000
      6 CAS         -5.6450     1.3640     0.4610 cd         1 8R2       0.264900
      7 NAB         -6.5620     2.3590     0.6170 nv         1 8R2      -0.964000
      8 NAP         -6.0000     0.0480     0.7870 na         1 8R2      -0.253700
      9 CAX         -4.8730    -0.7150     0.5260 ca         1 8R2      -0.060200
     10 CAL         -4.7170    -2.1000     0.6810 ca         1 8R2      -0.105000
     11 CAK         -3.4690    -2.6690     0.3470 ca         1 8R2      -0.113000
     12 CAV         -2.4110    -1.8550    -0.1210 ca         1 8R2       0.087100
     13 OAQ         -1.2120    -2.4490    -0.4480 os         1 8R2      -0.251200
     14 CAU          0.0060    -1.8470    -0.2240 ca         1 8R2       0.119100
     15 CAJ          1.0250    -1.9970    -1.1760 ca         1 8R2      -0.137500
     16 CAH          2.2830    -1.4030    -0.9700 ca         1 8R2      -0.105500
     17 CAI          0.2520    -1.1150     0.9510 ca         1 8R2      -0.137500
     18 CAG          1.5080    -0.5200     1.1590 ca         1 8R2      -0.105500
     19 CAT          2.5360    -0.6580     0.2050 ca         1 8R2      -0.064000
     20 NAO          3.7810    -0.0250     0.4820 ns         1 8R2      -0.141000
     21 C            5.0090    -0.0410    -0.1730 c          1 8R2       0.553100
     22 O            5.2470    -0.7100    -1.1760 o          1 8R2      -0.588100
     23 CA           6.1120     0.8380     0.5080 c3         1 8R2       0.092500
     24 N            7.4050     0.1090     0.8180 n8         1 8R2      -0.969200
     25 CB           6.3420     2.1120    -0.3590 c3         1 8R2       0.171600
     26 OG           7.1400     3.0820     0.3420 oh         1 8R2      -0.641000
     27 HAM         -1.8070     0.1760    -0.6580 ha         1 8R2       0.141000
     28 HAB1        -6.3590     3.3010     0.2830 hn         1 8R2       0.493000
     29 HAB2        -7.5350     2.1470     0.8340 hn         1 8R2       0.493000
     30 HAP         -6.8910    -0.2710     1.1440 hn         1 8R2       0.352000
     31 HAL         -5.5340    -2.7190     1.0450 ha         1 8R2       0.118000
     32 HAK         -3.3170    -3.7400     0.4550 ha         1 8R2       0.131000
     33 HAJ          0.8360    -2.5700    -2.0810 ha         1 8R2       0.130000
     34 HAI         -0.5260    -1.0090     1.7040 ha         1 8R2       0.130000
     35 HAH          3.0410    -1.5300    -1.7360 ha         1 8R2       0.126500
     36 HAG          1.6840     0.0470     2.0710 ha         1 8R2       0.126500
     37 HAO          3.7640     0.5530     1.3130 hn         1 8R2       0.152000
     38 HA           5.6930     1.1750     1.4670 h1         1 8R2       0.074700
     39 HN1          7.2080    -0.7170     1.3980 hn         1 8R2       0.408500
     40 HN2          7.7740    -0.2990    -0.0510 hn         1 8R2       0.408500
     41 HB1C         6.8260     1.8270    -1.3020 h1         1 8R2       0.026700
     42 HB2C         5.3660     2.5510    -0.6100 h1         1 8R2       0.026700
     43 HG           7.3170     3.8160    -0.2880 ho         1 8R2       0.443000
@<TRIPOS>BOND
     1     1     2 ar  
     2     1    12 ar  
     3     1    27 1   
     4     2     3 1   
     5     2     9 ar  
     6     3     4 1   
     7     3     6 2   
     8     4     5 3   
     9     6     7 1   
    10     6     8 1   
    11     7    28 1   
    12     7    29 1   
    13     8     9 1   
    14     8    30 1   
    15     9    10 ar  
    16    10    11 ar  
    17    10    31 1   
    18    11    12 ar  
    19    11    32 1   
    20    12    13 1   
    21    13    14 1   
    22    14    15 ar  
    23    14    17 ar  
    24    15    16 ar  
    25    15    33 1   
    26    16    19 ar  
    27    16    35 1   
    28    17    18 ar  
    29    17    34 1   
    30    18    19 ar  
    31    18    36 1   
    32    19    20 1   
    33    20    21 1   
    34    20    37 1   
    35    21    22 2   
    36    21    23 1   
    37    23    24 1   
    38    23    25 1   
    39    23    38 1   
    40    24    39 1   
    41    24    40 1   
    42    25    26 1   
    43    25    41 1   
    44    25    42 1   
    45    26    43 1   
@<TRIPOS>SUBSTRUCTURE
     1 8R2         1 TEMP              0 ****  ****    0 ROOT
