@<TRIPOS>MOLECULE
8R2
   43    45     1     0     0
SMALL
abcg2


@<TRIPOS>ATOM
      1 CAM         -2.7580    -0.3010    -0.7380 ca         1 8R2      -0.092000
      2 CAY         -3.9410     0.1890    -0.1980 ca         1 8R2      -0.011800
      3 CAW         -4.7090     1.3860    -0.4000 cc         1 8R2      -0.164900
      4 CAF         -4.4020     2.4630    -1.2340 cg         1 8R2       0.331700
      5 NAA         -4.1370     3.3570    -1.9220 n1         1 8R2      -0.495000
      6 CAS         -5.8250     1.3040     0.4410 cd         1 8R2       0.264900
      7 NAB         -6.8010     2.1980     0.6370 nv         1 8R2      -0.964000
      8 NAP         -5.7630     0.1380     1.1230 na         1 8R2      -0.253700
      9 CAX         -4.6330    -0.5710     0.7620 ca         1 8R2      -0.060200
     10 CAL         -4.1750    -1.7980     1.2030 ca         1 8R2      -0.105000
     11 CAK         -2.9880    -2.2770     0.6640 ca         1 8R2      -0.113000
     12 CAV         -2.3030    -1.5340    -0.2950 ca         1 8R2       0.087100
     13 OAQ         -1.1660    -2.0720    -0.8520 os         1 8R2      -0.251200
     14 CAU          0.0510    -1.6060    -0.4550 ca         1 8R2       0.119100
     15 CAJ          1.1500    -2.0310    -1.1930 ca         1 8R2      -0.137500
     16 CAH          2.4290    -1.6160    -0.8630 ca         1 8R2      -0.105500
     17 CAI          0.2420    -0.7640     0.6320 ca         1 8R2      -0.137500
     18 CAG          1.5230    -0.3400     0.9520 ca         1 8R2      -0.105500
     19 CAT          2.6280    -0.7490     0.2120 ca         1 8R2      -0.064000
     20 NAO          3.8940    -0.2940     0.6170 ns         1 8R2      -0.141000
     21 C            4.9970    -0.1200    -0.1460 c          1 8R2       0.553100
     22 O            5.0650    -0.4130    -1.3280 o          1 8R2      -0.588100
     23 CA           6.1810     0.5230     0.5840 c3         1 8R2       0.092500
     24 N            7.4500    -0.0830     0.2500 n8         1 8R2      -0.969200
     25 CB           6.1770     2.0070     0.2320 c3         1 8R2       0.171600
     26 OG           7.1700     2.6590     0.9810 oh         1 8R2      -0.641000
     27 HAM         -2.2040     0.2570    -1.4840 ha         1 8R2       0.141000
     28 HAB1        -6.9030     2.9560    -0.0180 hn         1 8R2       0.493000
     29 HAB2        -7.6470     1.9180     1.1050 hn         1 8R2       0.493000
     30 HAP         -6.4640    -0.1810     1.7730 hn         1 8R2       0.352000
     31 HAL         -4.7180    -2.3710     1.9430 ha         1 8R2       0.118000
     32 HAK         -2.5950    -3.2340     0.9820 ha         1 8R2       0.131000
     33 HAJ          1.0050    -2.7000    -2.0330 ha         1 8R2       0.130000
     34 HAI         -0.5900    -0.4260     1.2360 ha         1 8R2       0.130000
     35 HAH          3.2590    -1.9790    -1.4470 ha         1 8R2       0.126500
     36 HAG          1.6580     0.3280     1.7950 ha         1 8R2       0.126500
     37 HAO          3.9490     0.0350     1.5690 hn         1 8R2       0.152000
     38 HA           6.0320     0.4250     1.6640 h1         1 8R2       0.074700
     39 HN1          7.4520    -1.0570     0.5240 hn         1 8R2       0.408500
     40 HN2          7.5810    -0.0720    -0.7550 hn         1 8R2       0.408500
     41 HB1C         6.3450     2.1140    -0.8490 h1         1 8R2       0.026700
     42 HB2C         5.1800     2.4170     0.4410 h1         1 8R2       0.026700
     43 HG           7.1510     3.5910     0.7480 ho         1 8R2       0.443000
@<TRIPOS>BOND
     1     1     2 ar  
     2     1    12 ar  
     3     1    27 1   
     4     2     3 1   
     5     2     9 ar  
     6     3     4 1   
     7     3     6 2   
     8     4     5 3   
     9     6     7 1   
    10     6     8 1   
    11     7    28 1   
    12     7    29 1   
    13     8     9 1   
    14     8    30 1   
    15     9    10 ar  
    16    10    11 ar  
    17    10    31 1   
    18    11    12 ar  
    19    11    32 1   
    20    12    13 1   
    21    13    14 1   
    22    14    15 ar  
    23    14    17 ar  
    24    15    16 ar  
    25    15    33 1   
    26    16    19 ar  
    27    16    35 1   
    28    17    18 ar  
    29    17    34 1   
    30    18    19 ar  
    31    18    36 1   
    32    19    20 1   
    33    20    21 1   
    34    20    37 1   
    35    21    22 2   
    36    21    23 1   
    37    23    24 1   
    38    23    25 1   
    39    23    38 1   
    40    24    39 1   
    41    24    40 1   
    42    25    26 1   
    43    25    41 1   
    44    25    42 1   
    45    26    43 1   
@<TRIPOS>SUBSTRUCTURE
     1 8R2         1 TEMP              0 ****  ****    0 ROOT
