@<TRIPOS>MOLECULE
8R3
   62    64     1     0     0
SMALL
No Charge or Current Charge


@<TRIPOS>ATOM
      1 C1          -0.5070     0.3320    -1.3010 c          1 8R3       0.562000
      2 O2           0.1540     1.1070    -1.9810 o          1 8R3      -0.539000
      3 O32          9.9190    -0.1430    -0.1710 o          1 8R3      -0.720000
      4 O33          8.7790    -1.3890    -1.4980 o          1 8R3      -0.720000
      5 C26          7.5600    -0.0230     0.0060 ca         1 8R3      -0.115600
      6 C25          6.2970    -0.4710    -0.4540 ca         1 8R3      -0.132000
      7 C27          7.5940     0.9350     1.0440 ca         1 8R3      -0.099000
      8 C28          6.4030     1.4280     1.6000 ca         1 8R3      -0.129000
      9 C29          5.1600     0.9740     1.1340 ca         1 8R3      -0.150000
     10 C21          5.0970     0.0160     0.1000 ca         1 8R3      -0.074000
     11 N20          3.8760    -0.4930    -0.4280 ns         1 8R3      -0.125000
     12 C19          2.5420    -0.2760    -0.0960 c          1 8R3       0.585100
     13 O30          2.1640     0.4570     0.8150 o          1 8R3      -0.607100
     14 C17          1.5570    -1.0720    -0.9820 c3         1 8R3       0.002000
     15 N16          0.1060    -0.8100    -0.7330 n          1 8R3      -0.379800
     16 C15         -0.5230    -1.5600     0.3920 c3         1 8R3       0.051700
     17 C13         -1.7700    -2.3940     0.0910 c2         1 8R3       0.636200
     18 N14         -1.8820    -3.6230     0.5100 n2         1 8R3      -0.623400
     19 N62         -3.0670    -4.2780     0.2220 nh         1 8R3      -0.430700
     20 C68         -3.0460    -5.3390    -0.8110 c3         1 8R3       0.148100
     21 C63         -4.0120    -4.5220     1.3360 c3         1 8R3       0.148100
     22 N12         -2.8300    -1.7950    -0.5650 nu         1 8R3      -0.912400
     23 C11         -2.7720    -0.7690    -1.6070 c3         1 8R3       0.249800
     24 C3          -2.0300     0.5180    -1.2040 c3         1 8R3      -0.149700
     25 C4          -2.5110     1.1820     0.1210 c3         1 8R3      -0.011100
     26 C5          -3.9730     1.6380     0.0600 ca         1 8R3      -0.105300
     27 C10         -4.3090     2.7360    -0.7610 ca         1 8R3      -0.066000
     28 C6          -4.9920     0.9890     0.8020 ca         1 8R3       0.149100
     29 O23         -4.6520    -0.0750     1.6170 os         1 8R3      -0.328100
     30 C24         -5.6270    -0.8300     2.3560 c3         1 8R3       0.148900
     31 C7          -6.3280     1.4420     0.7000 ca         1 8R3      -0.199000
     32 C8          -6.6470     2.5320    -0.1280 ca         1 8R3      -0.068000
     33 C9          -5.6370     3.1780    -0.8550 ca         1 8R3       0.081000
     34 Cl2         -6.0350     4.5450    -1.8870 cl         1 8R3      -0.208000
     35 H2           6.2480    -1.2090    -1.2520 ha         1 8R3       0.124000
     36 H3           8.5450     1.3030     1.4230 ha         1 8R3       0.128000
     37 H4           6.4450     2.1670     2.3970 ha         1 8R3       0.088000
     38 H5           4.2620     1.3820     1.5870 ha         1 8R3       0.120000
     39 H6           4.0070    -1.1370    -1.1980 hn         1 8R3       0.146000
     40 H7           1.7950    -0.8460    -2.0300 h1         1 8R3       0.075200
     41 H8           1.7670    -2.1390    -0.8340 h1         1 8R3       0.075200
     42 H9           0.2250    -2.2420     0.8120 h1         1 8R3       0.082700
     43 H10         -0.7540    -0.8600     1.2010 h1         1 8R3       0.082700
     44 H12         -2.4590    -5.0170    -1.6810 h1         1 8R3       0.031867
     45 H13         -2.5990    -6.2570    -0.4080 h1         1 8R3       0.031867
     46 H14         -4.0650    -5.5650    -1.1490 h1         1 8R3       0.031867
     47 H15         -5.0240    -4.6940     0.9470 h1         1 8R3       0.031867
     48 H16         -3.7040    -5.4040     1.9130 h1         1 8R3       0.031867
     49 H17         -4.0460    -3.6570     2.0100 h1         1 8R3       0.031867
     50 H18         -2.3000    -1.1860    -2.5080 h1         1 8R3       0.038700
     51 H19         -3.8000    -0.4990    -1.8830 h1         1 8R3       0.038700
     52 H20         -2.2600     1.2460    -1.9910 hc         1 8R3       0.079700
     53 H21         -2.3480     0.5140     0.9710 hc         1 8R3       0.072200
     54 H22         -1.8770     2.0560     0.3200 hc         1 8R3       0.072200
     55 H23         -3.5380     3.2500    -1.3290 ha         1 8R3       0.139000
     56 H24         -5.1360    -1.6300     2.9240 h1         1 8R3       0.040700
     57 H25         -6.1610    -0.1880     3.0680 h1         1 8R3       0.040700
     58 H26         -6.3570    -1.2920     1.6790 h1         1 8R3       0.040700
     59 H27         -7.1310     0.9650     1.2550 ha         1 8R3       0.118000
     60 H28         -7.6750     2.8780    -0.2040 ha         1 8R3       0.124000
     61 H30         -3.5950    -2.4620    -0.6230 hn         1 8R3       0.499000
     62 C31          8.8510    -0.5600    -0.6010 c          1 8R3       0.713600
@<TRIPOS>BOND
     1     1     2 2   
     2     1    15 1   
     3     1    24 1   
     4     3    62 1   
     5     4    62 1   
     6     5     6 ar  
     7     5     7 ar  
     8     5    62 1   
     9     6    10 ar  
    10     6    35 1   
    11     7     8 ar  
    12     7    36 1   
    13     8     9 ar  
    14     8    37 1   
    15     9    10 ar  
    16     9    38 1   
    17    10    11 1   
    18    11    12 1   
    19    11    39 1   
    20    12    13 2   
    21    12    14 1   
    22    14    15 1   
    23    14    40 1   
    24    14    41 1   
    25    15    16 1   
    26    16    17 1   
    27    16    42 1   
    28    16    43 1   
    29    17    18 2   
    30    17    22 1   
    31    18    19 1   
    32    19    20 1   
    33    19    21 1   
    34    20    44 1   
    35    20    45 1   
    36    20    46 1   
    37    21    47 1   
    38    21    48 1   
    39    21    49 1   
    40    22    23 1   
    41    22    61 1   
    42    23    24 1   
    43    23    50 1   
    44    23    51 1   
    45    24    25 1   
    46    24    52 1   
    47    25    26 1   
    48    25    53 1   
    49    25    54 1   
    50    26    27 ar  
    51    26    28 ar  
    52    27    33 ar  
    53    27    55 1   
    54    28    29 1   
    55    28    31 ar  
    56    29    30 1   
    57    30    56 1   
    58    30    57 1   
    59    30    58 1   
    60    31    32 ar  
    61    31    59 1   
    62    32    33 ar  
    63    32    60 1   
    64    33    34 1   
@<TRIPOS>SUBSTRUCTURE
     1 8R3         1 TEMP              0 ****  ****    0 ROOT
