@<TRIPOS>MOLECULE
8R3
   62    64     1     0     0
SMALL
bcc


@<TRIPOS>ATOM
      1 C1          -0.4380     0.0270    -1.3060 c          1 8R3       0.704500
      2 O2           0.2860     0.7390    -1.9840 o          1 8R3      -0.614500
      3 O32          9.4930     0.5560    -0.3440 o          1 8R3      -0.825300
      4 O33          8.4070    -0.6860    -1.8430 o          1 8R3      -0.825300
      5 C26          7.1550     0.3260    -0.1130 ca         1 8R3      -0.115600
      6 C25          5.9710    -0.2220    -0.5850 ca         1 8R3      -0.150000
      7 C27          7.1160     1.1340     1.0200 ca         1 8R3      -0.117000
      8 C28          5.9070     1.3770     1.6520 ca         1 8R3      -0.147000
      9 C29          4.7200     0.8290     1.1820 ca         1 8R3      -0.168000
     10 C21          4.7510     0.0180     0.0470 ca         1 8R3       0.018600
     11 N20          3.6220    -0.5890    -0.5200 ns         1 8R3      -0.451100
     12 C19          2.3290    -0.5420    -0.1300 c          1 8R3       0.652100
     13 O30          1.9030     0.1010     0.8100 o          1 8R3      -0.607100
     14 C17          1.4150    -1.4280    -0.9710 c3         1 8R3       0.002000
     15 N16          0.0270    -1.1200    -0.7510 n          1 8R3      -0.446800
     16 C15         -0.6300    -1.7560     0.3800 c3         1 8R3       0.051700
     17 C13         -1.8870    -2.5170     0.0700 c2         1 8R3       0.636200
     18 N14         -1.9560    -3.6890     0.6050 n2         1 8R3      -0.623400
     19 N62         -3.2020    -4.3340     0.3480 nh         1 8R3      -0.430700
     20 C68         -2.9460    -5.5080    -0.4650 c3         1 8R3       0.148100
     21 C63         -3.7930    -4.6990     1.6190 c3         1 8R3       0.148100
     22 N12         -2.8790    -1.9310    -0.6180 nu         1 8R3      -0.857200
     23 C11         -2.8140    -0.8120    -1.5240 c3         1 8R3       0.249800
     24 C3          -1.9140     0.3590    -1.1400 c3         1 8R3      -0.149700
     25 C4          -2.2450     1.0620     0.1930 c3         1 8R3      -0.011100
     26 C5          -3.5910     1.7340     0.1420 ca         1 8R3      -0.105300
     27 C10         -3.7050     2.9840    -0.4490 ca         1 8R3      -0.084000
     28 C6          -4.7470     1.1220     0.6510 ca         1 8R3       0.149100
     29 O23         -4.5820    -0.0780     1.2300 os         1 8R3      -0.304900
     30 C24         -5.7180    -0.8210     1.6150 c3         1 8R3       0.125700
     31 C7          -5.9800     1.7630     0.5430 ca         1 8R3      -0.217000
     32 C8          -6.0760     3.0110    -0.0560 ca         1 8R3      -0.086000
     33 C9          -4.9350     3.6160    -0.5470 ca         1 8R3      -0.010600
     34 CL2         -5.0370     5.1820    -1.2910 cl         1 8R3      -0.116400
     35 H2           6.0030    -0.8520    -1.4670 ha         1 8R3       0.142000
     36 H3           8.0280     1.5720     1.4020 ha         1 8R3       0.146000
     37 H4           5.8760     2.0060     2.5330 ha         1 8R3       0.106000
     38 H5           3.7950     1.0370     1.6950 ha         1 8R3       0.138000
     39 H6           3.8170    -1.1540    -1.3340 hn         1 8R3       0.312500
     40 H7           1.6610    -1.3390    -2.0300 h1         1 8R3       0.075200
     41 H8           1.5920    -2.4700    -0.6990 h1         1 8R3       0.075200
     42 H9           0.0610    -2.4740     0.8130 h1         1 8R3       0.082700
     43 H10         -0.8310    -1.0310     1.1700 h1         1 8R3       0.082700
     44 H12         -2.5320    -5.2120    -1.4280 h1         1 8R3       0.031867
     45 H13         -2.2480    -6.2130     0.0090 h1         1 8R3       0.031867
     46 H14         -3.8860    -6.0300    -0.6510 h1         1 8R3       0.031867
     47 H15         -4.7320    -5.2260     1.4440 h1         1 8R3       0.031867
     48 H16         -3.1420    -5.3470     2.2230 h1         1 8R3       0.031867
     49 H17         -4.0160    -3.8040     2.1990 h1         1 8R3       0.031867
     50 H18         -2.5150    -1.1420    -2.5260 h1         1 8R3       0.038700
     51 H19         -3.8300    -0.4300    -1.6250 h1         1 8R3       0.038700
     52 H20         -2.0910     1.1010    -1.9230 hc         1 8R3       0.079700
     53 H21         -2.2000     0.3770     1.0360 hc         1 8R3       0.072200
     54 H22         -1.4820     1.8240     0.3680 hc         1 8R3       0.072200
     55 H23         -2.8170     3.4670    -0.8390 ha         1 8R3       0.157000
     56 H24         -5.3490    -1.7760     1.9820 h1         1 8R3       0.040700
     57 H25         -6.2790    -0.3320     2.4160 h1         1 8R3       0.040700
     58 H26         -6.3910    -1.0040     0.7730 h1         1 8R3       0.040700
     59 H27         -6.8840     1.3080     0.9250 ha         1 8R3       0.136000
     60 H28         -7.0390     3.4970    -0.1330 ha         1 8R3       0.142000
     61 H30         -3.6860    -2.5340    -0.7100 hn         1 8R3       0.443800
     62 C31          8.4700     0.0390    -0.8320 c          1 8R3       0.924200
@<TRIPOS>BOND
     1     1     2 2   
     2     1    15 1   
     3     1    24 1   
     4     3    62 1   
     5     4    62 1   
     6     5     6 ar  
     7     5     7 ar  
     8     5    62 1   
     9     6    10 ar  
    10     6    35 1   
    11     7     8 ar  
    12     7    36 1   
    13     8     9 ar  
    14     8    37 1   
    15     9    10 ar  
    16     9    38 1   
    17    10    11 1   
    18    11    12 1   
    19    11    39 1   
    20    12    13 2   
    21    12    14 1   
    22    14    15 1   
    23    14    40 1   
    24    14    41 1   
    25    15    16 1   
    26    16    17 1   
    27    16    42 1   
    28    16    43 1   
    29    17    18 2   
    30    17    22 1   
    31    18    19 1   
    32    19    20 1   
    33    19    21 1   
    34    20    44 1   
    35    20    45 1   
    36    20    46 1   
    37    21    47 1   
    38    21    48 1   
    39    21    49 1   
    40    22    23 1   
    41    22    61 1   
    42    23    24 1   
    43    23    50 1   
    44    23    51 1   
    45    24    25 1   
    46    24    52 1   
    47    25    26 1   
    48    25    53 1   
    49    25    54 1   
    50    26    27 ar  
    51    26    28 ar  
    52    27    33 ar  
    53    27    55 1   
    54    28    29 1   
    55    28    31 ar  
    56    29    30 1   
    57    30    56 1   
    58    30    57 1   
    59    30    58 1   
    60    31    32 ar  
    61    31    59 1   
    62    32    33 ar  
    63    32    60 1   
    64    33    34 1   
@<TRIPOS>SUBSTRUCTURE
     1 8R3         1 TEMP              0 ****  ****    0 ROOT
