@<TRIPOS>MOLECULE
8R4
   49    53     1     0     0
SMALL
abcg2


@<TRIPOS>ATOM
      1 C4           3.1540    -0.2040    -0.0580 ca         1 8R4      -0.049300
      2 C14         -0.0800     2.7190     0.7930 cc         1 8R4      -0.088900
      3 C5           2.1040     0.7100     0.0050 ca         1 8R4      -0.112000
      4 C6           0.8600     0.3910     0.5420 ca         1 8R4      -0.081800
      5 C11          6.1360     1.8530    -1.1920 c5         1 8R4      -0.079400
      6 C8           4.4670     0.2400    -0.6510 c5         1 8R4      -0.016400
      7 C9           4.4540     0.3530    -2.1830 c5         1 8R4      -0.072900
      8 C10          5.6430     1.2720    -2.5340 c5         1 8R4      -0.079400
      9 C12          4.9810     1.6170    -0.2200 c5         1 8R4      -0.072900
     10 C13         -0.2110     1.3860     0.5900 cd         1 8R4      -0.022400
     11 N1          -3.4850     2.7390     0.4700 nb         1 8R4      -0.663000
     12 C3           2.9410    -1.5010     0.4340 ca         1 8R4      -0.096600
     13 C1           0.6700    -0.8940     1.0490 ca         1 8R4      -0.118000
     14 C2           1.7060    -1.8090     1.0040 ca         1 8R4      -0.098000
     15 O1           4.0800    -3.3360     1.3730 o          1 8R4      -0.714000
     16 O2           4.5860    -2.7530    -0.7180 o          1 8R4      -0.714000
     17 O3          -1.2710     3.3730     0.7750 os         1 8R4      -0.289400
     18 C15         -2.2150     2.4400     0.5560 ca         1 8R4       0.493300
     19 C16         -1.6300     1.1780     0.4330 ca         1 8R4      -0.139800
     20 C17         -2.4820     0.1160     0.1650 ca         1 8R4      -0.005000
     21 C18         -3.8460     0.3840     0.0650 cp         1 8R4      -0.127000
     22 C19         -4.2850     1.7070     0.2330 ca         1 8R4       0.357900
     23 C20         -4.8160    -0.6940    -0.2060 cp         1 8R4      -0.018000
     24 C21         -5.8940    -0.4880    -1.0690 ca         1 8R4      -0.101500
     25 C22         -6.8030    -1.5050    -1.3210 ca         1 8R4      -0.111500
     26 C23         -6.6480    -2.7470    -0.7190 ca         1 8R4      -0.115000
     27 C24         -5.5780    -2.9630     0.1400 ca         1 8R4      -0.111500
     28 C25         -4.6710    -1.9450     0.3960 ca         1 8R4      -0.101500
     29 H14          0.7900     3.3280     0.9810 h4         1 8R4       0.243000
     30 H3           2.2500     1.7080    -0.3930 ha         1 8R4       0.090000
     31 H11          7.0180     1.3070    -0.8490 hc         1 8R4       0.028450
     32 H10          6.4210     2.9030    -1.2660 hc         1 8R4       0.028450
     33 H5           5.2360    -0.4850    -0.3840 hc         1 8R4       0.096700
     34 H6           4.5140    -0.6300    -2.6490 hc         1 8R4       0.040950
     35 H7           3.5140     0.8070    -2.5100 hc         1 8R4       0.040950
     36 H9           5.3270     2.0680    -3.2100 hc         1 8R4       0.028450
     37 H8           6.4390     0.7280    -3.0440 hc         1 8R4       0.028450
     38 H12          5.2850     1.6480     0.8280 hc         1 8R4       0.040950
     39 H13          4.2170     2.3860    -0.3620 hc         1 8R4       0.040950
     40 H1          -0.2730    -1.1740     1.5030 ha         1 8R4       0.089000
     41 H2           1.5480    -2.7980     1.4150 ha         1 8R4       0.125000
     42 H15         -2.1050    -0.8880     0.0130 ha         1 8R4       0.139000
     43 H16         -5.3450     1.9290     0.1850 h4         1 8R4       0.017100
     44 H17         -6.0150     0.4680    -1.5640 ha         1 8R4       0.117000
     45 H18         -7.6300    -1.3290    -1.9970 ha         1 8R4       0.109500
     46 H19         -7.3550    -3.5410    -0.9190 ha         1 8R4       0.107000
     47 H20         -5.4520    -3.9250     0.6210 ha         1 8R4       0.109500
     48 H21         -3.8560    -2.1200     1.0860 ha         1 8R4       0.117000
     49 C7           3.9720    -2.6210     0.3580 c          1 8R4       0.709600
@<TRIPOS>BOND
     1     1     3 ar  
     2     1     6 1   
     3     1    12 ar  
     4     2    10 2   
     5     2    17 1   
     6     2    29 1   
     7     3     4 ar  
     8     3    30 1   
     9     4    10 1   
    10     4    13 ar  
    11     5     8 1   
    12     5     9 1   
    13     5    31 1   
    14     5    32 1   
    15     6     7 1   
    16     6     9 1   
    17     6    33 1   
    18     7     8 1   
    19     7    34 1   
    20     7    35 1   
    21     8    36 1   
    22     8    37 1   
    23     9    38 1   
    24     9    39 1   
    25    10    19 1   
    26    11    18 ar  
    27    11    22 ar  
    28    12    14 ar  
    29    12    49 1   
    30    13    14 ar  
    31    13    40 1   
    32    14    41 1   
    33    15    49 1   
    34    16    49 1   
    35    17    18 1   
    36    18    19 ar  
    37    19    20 ar  
    38    20    21 ar  
    39    20    42 1   
    40    21    22 ar  
    41    21    23 1   
    42    22    43 1   
    43    23    24 ar  
    44    23    28 ar  
    45    24    25 ar  
    46    24    44 1   
    47    25    26 ar  
    48    25    45 1   
    49    26    27 ar  
    50    26    46 1   
    51    27    28 ar  
    52    27    47 1   
    53    28    48 1   
@<TRIPOS>SUBSTRUCTURE
     1 8R4         1 TEMP              0 ****  ****    0 ROOT
