@<TRIPOS>MOLECULE
8R4
   49    53     1     0     0
SMALL
No Charge or Current Charge


@<TRIPOS>ATOM
      1 C4           3.1410    -0.2290    -0.1980 ca         1 8R4      -0.049300
      2 C14         -0.0180     2.8230     0.3100 cc         1 8R4      -0.088900
      3 C5           2.0980     0.7300    -0.1480 ca         1 8R4      -0.112000
      4 C6           0.8010     0.4100     0.3070 ca         1 8R4      -0.081800
      5 C11          6.3090     1.7620    -0.8150 c5         1 8R4      -0.079400
      6 C8           4.5560     0.1510    -0.6970 c5         1 8R4      -0.016400
      7 C9           4.4750     0.7250    -2.1370 c5         1 8R4      -0.072900
      8 C10          5.8560     1.4360    -2.2790 c5         1 8R4      -0.079400
      9 C12          5.0810     1.3960     0.0640 c5         1 8R4      -0.072900
     10 C13         -0.2440     1.4580     0.3420 cd         1 8R4      -0.022400
     11 N1          -3.5150     2.8150     0.1680 nb         1 8R4      -0.663000
     12 C3           2.8550    -1.5510     0.2360 ca         1 8R4      -0.096600
     13 C1           0.5590    -0.8970     0.7660 ca         1 8R4      -0.118000
     14 C2           1.5720    -1.8640     0.7260 ca         1 8R4      -0.098000
     15 O1           4.2940    -3.0830     1.2800 o          1 8R4      -0.714000
     16 O2           4.2290    -3.1010    -0.8740 o          1 8R4      -0.714000
     17 O3          -1.2290     3.5180     0.3050 os         1 8R4      -0.289400
     18 C15         -2.2010     2.5420     0.2530 ca         1 8R4       0.493300
     19 C16         -1.6730     1.2730     0.2560 ca         1 8R4      -0.139800
     20 C17         -2.5050     0.1520     0.1160 ca         1 8R4      -0.005000
     21 C18         -3.9030     0.3870     0.0290 cp         1 8R4      -0.127000
     22 C19         -4.3420     1.7440     0.0690 ca         1 8R4       0.357900
     23 C20         -4.8750    -0.7430    -0.1130 cp         1 8R4      -0.018000
     24 C21         -6.0760    -0.5900    -0.8520 ca         1 8R4      -0.101500
     25 C22         -6.9890    -1.6510    -0.9850 ca         1 8R4      -0.111500
     26 C23         -6.7210    -2.8880    -0.3800 ca         1 8R4      -0.115000
     27 C24         -5.5400    -3.0640     0.3580 ca         1 8R4      -0.111500
     28 C25         -4.6270    -2.0030     0.4900 ca         1 8R4      -0.101500
     29 H14          0.8990     3.4050     0.3160 h4         1 8R4       0.243000
     30 H3           2.2900     1.7410    -0.4920 ha         1 8R4       0.090000
     31 H11          7.1800     1.1570    -0.5370 hc         1 8R4       0.028450
     32 H10          6.6000     2.8110    -0.6950 hc         1 8R4       0.028450
     33 H5           5.2810    -0.6690    -0.6410 hc         1 8R4       0.096700
     34 H6           4.3310    -0.0580    -2.8900 hc         1 8R4       0.040950
     35 H7           3.6610     1.4460    -2.2660 hc         1 8R4       0.040950
     36 H9           5.7740     2.3410    -2.8920 hc         1 8R4       0.028450
     37 H8           6.5880     0.7850    -2.7730 hc         1 8R4       0.028450
     38 H12          5.3630     1.1680     1.0990 hc         1 8R4       0.040950
     39 H13          4.3690     2.2280     0.0950 hc         1 8R4       0.040950
     40 H1          -0.3930    -1.1680     1.2070 ha         1 8R4       0.089000
     41 H2           1.3650    -2.8700     1.0860 ha         1 8R4       0.125000
     42 H15         -2.1090    -0.8540     0.0290 ha         1 8R4       0.139000
     43 H16         -5.4030     1.9800     0.0160 h4         1 8R4       0.017100
     44 H17         -6.2990     0.3550    -1.3410 ha         1 8R4       0.117000
     45 H18         -7.9020    -1.5130    -1.5600 ha         1 8R4       0.109500
     46 H19         -7.4270    -3.7090    -0.4820 ha         1 8R4       0.107000
     47 H20         -5.3320    -4.0210     0.8320 ha         1 8R4       0.109500
     48 H21         -3.7270    -2.1580     1.0780 ha         1 8R4       0.117000
     49 C7           3.8900    -2.6500     0.2110 c          1 8R4       0.709600
@<TRIPOS>BOND
     1     1     3 ar  
     2     1     6 1   
     3     1    12 ar  
     4     2    10 2   
     5     2    17 1   
     6     2    29 1   
     7     3     4 ar  
     8     3    30 1   
     9     4    10 1   
    10     4    13 ar  
    11     5     8 1   
    12     5     9 1   
    13     5    31 1   
    14     5    32 1   
    15     6     7 1   
    16     6     9 1   
    17     6    33 1   
    18     7     8 1   
    19     7    34 1   
    20     7    35 1   
    21     8    36 1   
    22     8    37 1   
    23     9    38 1   
    24     9    39 1   
    25    10    19 1   
    26    11    18 ar  
    27    11    22 ar  
    28    12    14 ar  
    29    12    49 1   
    30    13    14 ar  
    31    13    40 1   
    32    14    41 1   
    33    15    49 1   
    34    16    49 1   
    35    17    18 1   
    36    18    19 ar  
    37    19    20 ar  
    38    20    21 ar  
    39    20    42 1   
    40    21    22 ar  
    41    21    23 1   
    42    22    43 1   
    43    23    24 ar  
    44    23    28 ar  
    45    24    25 ar  
    46    24    44 1   
    47    25    26 ar  
    48    25    45 1   
    49    26    27 ar  
    50    26    46 1   
    51    27    28 ar  
    52    27    47 1   
    53    28    48 1   
@<TRIPOS>SUBSTRUCTURE
     1 8R4         1 TEMP              0 ****  ****    0 ROOT
