@<TRIPOS>MOLECULE
8R7
   46    49     1     0     0
SMALL
abcg2


@<TRIPOS>ATOM
      1 C4          -0.2600     1.2660     1.3210 ca         1 8R7      -0.118000
      2 C14          1.1380    -2.0140     1.4610 ca         1 8R7      -0.195000
      3 C5          -2.4630     0.0900     0.0420 ca         1 8R7      -0.053300
      4 C6          -3.6070    -0.6320    -0.6240 c5         1 8R7      -0.021400
      5 C11         -1.2460    -0.5820     0.1650 ca         1 8R7      -0.106000
      6 C7          -3.3360    -1.0530    -2.0870 c5         1 8R7      -0.073400
      7 C8          -4.0860    -2.3860    -2.2960 c5         1 8R7      -0.079900
      8 C9          -4.8590    -2.6380    -0.9950 c5         1 8R7      -0.079900
      9 C10         -4.0190    -1.9390     0.0680 c5         1 8R7      -0.073400
     10 C12         -0.1360    -0.0110     0.7750 cp         1 8R7      -0.111000
     11 C13          1.1260    -0.7720     0.8760 cp         1 8R7       0.074000
     12 N1           3.5050    -2.2670     1.1600 nb         1 8R7      -0.694000
     13 C3          -1.4710     1.9280     1.2420 ca         1 8R7      -0.099000
     14 O1          -4.1830     2.8100     1.5270 o          1 8R7      -0.713000
     15 C2          -2.5730     1.3770     0.5820 ca         1 8R7      -0.093600
     16 C15          2.3520    -2.7150     1.5780 ca         1 8R7       0.362900
     17 C16          3.5280    -1.0530     0.5530 ca         1 8R7       0.300000
     18 C17          4.7650    -0.5830     0.0770 ca         1 8R7      -0.150000
     19 C18          4.8570     0.6250    -0.5770 ca         1 8R7       0.139100
     20 O2           6.0760     0.9990    -0.9980 os         1 8R7      -0.349100
     21 C19          6.2200     2.2240    -1.6950 c3         1 8R7       0.153900
     22 C20          3.6910     1.4000    -0.7820 ca         1 8R7      -0.201000
     23 C21          2.4830     0.9590    -0.3140 ca         1 8R7      -0.033000
     24 C22          2.3580    -0.2640     0.3790 ca         1 8R7      -0.107000
     25 O3          -4.3530     2.3340    -0.6450 o          1 8R7      -0.713000
     26 H3           0.5780     1.7280     1.8270 ha         1 8R7       0.095000
     27 H14          0.2320    -2.4500     1.8600 ha         1 8R7       0.128000
     28 H4          -4.4780     0.0200    -0.6280 hc         1 8R7       0.103700
     29 H13         -1.1490    -1.5820    -0.2450 ha         1 8R7       0.095000
     30 H6          -3.6690    -0.2730    -2.7730 hc         1 8R7       0.040200
     31 H5          -2.2670    -1.1850    -2.2630 hc         1 8R7       0.040200
     32 H8          -4.7440    -2.3640    -3.1660 hc         1 8R7       0.028950
     33 H7          -3.3710    -3.1940    -2.4630 hc         1 8R7       0.028950
     34 H10         -5.8480    -2.1750    -1.0450 hc         1 8R7       0.028950
     35 H9          -5.0110    -3.6990    -0.7920 hc         1 8R7       0.028950
     36 H12         -3.1420    -2.5450     0.3150 hc         1 8R7       0.040200
     37 H11         -4.5580    -1.7590     1.0000 hc         1 8R7       0.040200
     38 H2          -1.5630     2.9080     1.6920 ha         1 8R7       0.124000
     39 H15          2.3530    -3.6890     2.0570 h4         1 8R7       0.005100
     40 H16          5.6460    -1.1940     0.2260 ha         1 8R7       0.134000
     41 H19          7.2750     2.3140    -1.9390 h1         1 8R7       0.036700
     42 H17          5.6430     2.2360    -2.6230 h1         1 8R7       0.036700
     43 H18          5.9270     3.0790    -1.0820 h1         1 8R7       0.036700
     44 H20          3.7310     2.3410    -1.3130 ha         1 8R7       0.114000
     45 H21          1.6050     1.5630    -0.4950 ha         1 8R7       0.137000
     46 C1          -3.8240     2.2410     0.4790 c          1 8R7       0.710600
@<TRIPOS>BOND
     1     1    10 ar  
     2     1    13 ar  
     3     1    26 1   
     4     2    11 ar  
     5     2    16 ar  
     6     2    27 1   
     7     3     4 1   
     8     3     5 ar  
     9     3    15 ar  
    10     4     6 1   
    11     4     9 1   
    12     4    28 1   
    13     5    10 ar  
    14     5    29 1   
    15     6     7 1   
    16     6    30 1   
    17     6    31 1   
    18     7     8 1   
    19     7    32 1   
    20     7    33 1   
    21     8     9 1   
    22     8    34 1   
    23     8    35 1   
    24     9    36 1   
    25     9    37 1   
    26    10    11 1   
    27    11    24 ar  
    28    12    16 ar  
    29    12    17 ar  
    30    13    15 ar  
    31    13    38 1   
    32    14    46 1   
    33    15    46 1   
    34    16    39 1   
    35    17    18 ar  
    36    17    24 ar  
    37    18    19 ar  
    38    18    40 1   
    39    19    20 1   
    40    19    22 ar  
    41    20    21 1   
    42    21    41 1   
    43    21    42 1   
    44    21    43 1   
    45    22    23 ar  
    46    22    44 1   
    47    23    24 ar  
    48    23    45 1   
    49    25    46 1   
@<TRIPOS>SUBSTRUCTURE
     1 8R7         1 TEMP              0 ****  ****    0 ROOT
