@<TRIPOS>MOLECULE
8R7
   46    49     1     0     0
SMALL
No Charge or Current Charge


@<TRIPOS>ATOM
      1 C4          -0.2970     1.2540     1.3520 ca         1 8R7      -0.118000
      2 C14          1.0660    -2.0830     1.3880 ca         1 8R7      -0.195000
      3 C5          -2.5540     0.1570     0.0290 ca         1 8R7      -0.053300
      4 C6          -3.7790    -0.4740    -0.6690 c5         1 8R7      -0.021400
      5 C11         -1.3270    -0.5460     0.0980 ca         1 8R7      -0.106000
      6 C7          -3.3760    -0.9760    -2.1030 c5         1 8R7      -0.073400
      7 C8          -3.5650    -2.5200    -2.0460 c5         1 8R7      -0.079900
      8 C9          -4.7160    -2.6660    -1.0220 c5         1 8R7      -0.079900
      9 C10         -4.1780    -1.7670     0.1160 c5         1 8R7      -0.073400
     10 C12         -0.1860    -0.0120     0.7400 cp         1 8R7      -0.111000
     11 C13          1.0820    -0.7990     0.8080 cp         1 8R7       0.074000
     12 N1           3.4350    -2.3670     1.0380 nb         1 8R7      -0.694000
     13 C3          -1.5010     1.9700     1.2990 ca         1 8R7      -0.099000
     14 O1          -4.4900     2.4290     1.6690 o          1 8R7      -0.713000
     15 C2          -2.6290     1.4400     0.6380 ca         1 8R7      -0.093600
     16 C15          2.2470    -2.8240     1.4860 ca         1 8R7       0.362900
     17 C16          3.4850    -1.1450     0.4610 ca         1 8R7       0.300000
     18 C17          4.7200    -0.6770    -0.0170 ca         1 8R7      -0.150000
     19 C18          4.8350     0.5720    -0.6410 ca         1 8R7       0.139100
     20 O2           6.0830     0.9600    -1.0850 os         1 8R7      -0.349100
     21 C19          6.3060     2.2220    -1.7390 c3         1 8R7       0.153900
     22 C20          3.6900     1.3740    -0.7990 ca         1 8R7      -0.201000
     23 C21          2.4470     0.9250    -0.3260 ca         1 8R7      -0.033000
     24 C22          2.3320    -0.3270     0.3180 ca         1 8R7      -0.107000
     25 O3          -4.2220     2.7900    -0.4390 o          1 8R7      -0.713000
     26 H3           0.5560     1.6800     1.8750 ha         1 8R7       0.095000
     27 H14          0.1410    -2.4990     1.7770 ha         1 8R7       0.128000
     28 H4          -4.6410     0.1980    -0.7450 hc         1 8R7       0.103700
     29 H13         -1.2460    -1.5300    -0.3550 ha         1 8R7       0.095000
     30 H6          -4.0450    -0.5380    -2.8540 hc         1 8R7       0.040200
     31 H5          -2.3600    -0.6960    -2.4030 hc         1 8R7       0.040200
     32 H8          -3.8190    -2.9430    -3.0240 hc         1 8R7       0.028950
     33 H7          -2.6550    -3.0250    -1.7010 hc         1 8R7       0.028950
     34 H10         -5.6700    -2.3010    -1.4200 hc         1 8R7       0.028950
     35 H9          -4.8620    -3.7030    -0.7010 hc         1 8R7       0.028950
     36 H12         -3.3320    -2.2460     0.6230 hc         1 8R7       0.040200
     37 H11         -4.9350    -1.5660     0.8820 hc         1 8R7       0.040200
     38 H2          -1.5640     2.9470     1.7730 ha         1 8R7       0.124000
     39 H15          2.2470    -3.8130     1.9410 h4         1 8R7       0.005100
     40 H16          5.6040    -1.2970     0.0940 ha         1 8R7       0.134000
     41 H19          7.3650     2.3290    -2.0060 h1         1 8R7       0.036700
     42 H17          5.7140     2.2940    -2.6600 h1         1 8R7       0.036700
     43 H18          6.0360     3.0560    -1.0790 h1         1 8R7       0.036700
     44 H20          3.7410     2.3430    -1.2870 ha         1 8R7       0.114000
     45 H21          1.5760     1.5580    -0.4760 ha         1 8R7       0.137000
     46 C1          -3.8910     2.2660     0.6150 c          1 8R7       0.710600
@<TRIPOS>BOND
     1     1    10 ar  
     2     1    13 ar  
     3     1    26 1   
     4     2    11 ar  
     5     2    16 ar  
     6     2    27 1   
     7     3     4 1   
     8     3     5 ar  
     9     3    15 ar  
    10     4     6 1   
    11     4     9 1   
    12     4    28 1   
    13     5    10 ar  
    14     5    29 1   
    15     6     7 1   
    16     6    30 1   
    17     6    31 1   
    18     7     8 1   
    19     7    32 1   
    20     7    33 1   
    21     8     9 1   
    22     8    34 1   
    23     8    35 1   
    24     9    36 1   
    25     9    37 1   
    26    10    11 1   
    27    11    24 ar  
    28    12    16 ar  
    29    12    17 ar  
    30    13    15 ar  
    31    13    38 1   
    32    14    46 1   
    33    15    46 1   
    34    16    39 1   
    35    17    18 ar  
    36    17    24 ar  
    37    18    19 ar  
    38    18    40 1   
    39    19    20 1   
    40    19    22 ar  
    41    20    21 1   
    42    21    41 1   
    43    21    42 1   
    44    21    43 1   
    45    22    23 ar  
    46    22    44 1   
    47    23    24 ar  
    48    23    45 1   
    49    25    46 1   
@<TRIPOS>SUBSTRUCTURE
     1 8R7         1 TEMP              0 ****  ****    0 ROOT
