@<TRIPOS>MOLECULE
8R9
   47    48     1     0     0
SMALL
abcg2


@<TRIPOS>ATOM
      1 C1          13.1500     1.5850   -10.7650 c3         1 8R9      -0.174100
      2 C2          14.1470     2.5750   -10.2240 c          1 8R9       0.599100
      3 O1          13.9050     3.2840    -9.2590 o          1 8R9      -0.575100
      4 N1          15.3300     2.6270   -10.8700 ns         1 8R9      -0.494900
      5 C3          16.3800     3.5250   -10.4740 c6         1 8R9       0.064400
      6 C4          15.9530     4.9820   -10.5600 c2         1 8R9       0.597600
      7 N2          15.2340     5.3090   -11.5600 n2         1 8R9      -0.357700
      8 O2          15.0840     6.6940   -11.6850 os         1 8R9      -0.296100
      9 C5          14.1620     7.2800   -10.8950 c          1 8R9       0.641100
     10 O3          13.5550     6.7290   -10.0130 o          1 8R9      -0.497000
     11 N3          14.0460     8.5800   -11.2640 ns         1 8R9      -0.141000
     12 C6          13.1560     9.4840   -10.6590 ca         1 8R9      -0.014000
     13 C7          13.1070     9.6290    -9.2750 ca         1 8R9      -0.115500
     14 C8          12.2300    10.5430    -8.7120 ca         1 8R9      -0.099000
     15 C9          11.4160    11.3330    -9.5140 ca         1 8R9      -0.141000
     16 C10         11.4860    11.2040   -10.8940 ca         1 8R9      -0.099000
     17 C11         12.3460    10.2780   -11.4660 ca         1 8R9      -0.115500
     18 O4          16.4440     5.8810    -9.7310 os         1 8R9      -0.401600
     19 C12         16.9340     5.4910    -8.4410 c6         1 8R9       0.142300
     20 C13         17.5990     6.7120    -7.8530 c3         1 8R9       0.230600
     21 O5          16.5870     7.6550    -7.5350 os         1 8R9      -0.583700
     22 S1          16.9730     9.2540    -7.6600 s6         1 8R9       1.496300
     23 O6          18.2300     9.4100    -6.9250 o          1 8R9      -0.705867
     24 O7          15.8160     9.8700    -7.0190 o          1 8R9      -0.705867
     25 O8          17.0890     9.5030    -9.0990 o          1 8R9      -0.705867
     26 C14         17.8610     4.2880    -8.5950 c6         1 8R9       0.103300
     27 O9          18.3670     3.8740    -7.3520 oh         1 8R9      -0.662000
     28 C15         17.0260     3.1380    -9.1420 c6         1 8R9       0.148300
     29 O10         17.7910     1.9920    -9.3960 oh         1 8R9      -0.669000
     30 H1          12.8930     0.8700    -9.9840 hc         1 8R9       0.056033
     31 H2          12.2350     2.1080   -11.0410 hc         1 8R9       0.056033
     32 H3          13.5100     1.0360   -11.6330 hc         1 8R9       0.056033
     33 H4          15.4840     2.0430   -11.6740 hn         1 8R9       0.321500
     34 H5          17.1680     3.4270   -11.2290 h1         1 8R9       0.078700
     35 H6          14.4630     8.8590   -12.1410 hn         1 8R9       0.162000
     36 H7          13.7660     9.0530    -8.6410 ha         1 8R9       0.134000
     37 H8          12.1960    10.6490    -7.6350 ha         1 8R9       0.107500
     38 H9          10.7390    12.0490    -9.0670 ha         1 8R9       0.097000
     39 H10         10.8630    11.8170   -11.5320 ha         1 8R9       0.107500
     40 H11         12.3880    10.1670   -12.5430 ha         1 8R9       0.134000
     41 H12         16.0790     5.2050    -7.8160 h1         1 8R9       0.098700
     42 H13         18.1380     6.4290    -6.9470 h1         1 8R9       0.039700
     43 H14         18.3300     7.1050    -8.5680 h1         1 8R9       0.039700
     44 H15         18.6670     4.5360    -9.3010 h1         1 8R9       0.051700
     45 H16         19.2290     4.2750    -7.2040 ho         1 8R9       0.456000
     46 H17         16.2420     2.9320    -8.4010 h1         1 8R9       0.078700
     47 H18         18.1250     1.6640    -8.5540 ho         1 8R9       0.458000
@<TRIPOS>BOND
     1     1     2 1   
     2     1    30 1   
     3     1    31 1   
     4     1    32 1   
     5     2     3 2   
     6     2     4 1   
     7     4     5 1   
     8     4    33 1   
     9     5     6 1   
    10     5    28 1   
    11     5    34 1   
    12     6     7 2   
    13     6    18 1   
    14     7     8 1   
    15     8     9 1   
    16     9    10 2   
    17     9    11 1   
    18    11    12 1   
    19    11    35 1   
    20    12    13 ar  
    21    12    17 ar  
    22    13    14 ar  
    23    13    36 1   
    24    14    15 ar  
    25    14    37 1   
    26    15    16 ar  
    27    15    38 1   
    28    16    17 ar  
    29    16    39 1   
    30    17    40 1   
    31    18    19 1   
    32    19    20 1   
    33    19    26 1   
    34    19    41 1   
    35    20    21 1   
    36    20    42 1   
    37    20    43 1   
    38    21    22 1   
    39    22    23 1   
    40    22    24 1   
    41    22    25 1   
    42    26    27 1   
    43    26    28 1   
    44    26    44 1   
    45    27    45 1   
    46    28    29 1   
    47    28    46 1   
    48    29    47 1   
@<TRIPOS>SUBSTRUCTURE
     1 8R9         1 TEMP              0 ****  ****    0 ROOT
