@<TRIPOS>MOLECULE
8R9
   47    48     1     0     0
SMALL
No Charge or Current Charge


@<TRIPOS>ATOM
      1 C1          13.3090     1.0250   -10.9410 c3         1 8R9      -0.174100
      2 C2          14.0780     2.2080   -10.3670 c          1 8R9       0.599100
      3 O1          13.5830     2.9960    -9.5770 o          1 8R9      -0.575100
      4 N1          15.3830     2.3120   -10.7920 ns         1 8R9      -0.494900
      5 C3          16.3380     3.4010   -10.4310 c6         1 8R9       0.064400
      6 C4          15.7940     4.8300   -10.6700 c2         1 8R9       0.597600
      7 N2          14.9980     5.1140   -11.6590 n2         1 8R9      -0.357700
      8 O2          14.6500     6.5090   -11.8130 os         1 8R9      -0.296100
      9 C5          13.8630     7.0860   -10.8280 c          1 8R9       0.641100
     10 O3          13.3530     6.4840    -9.8900 o          1 8R9      -0.497000
     11 N3          13.6680     8.4200   -11.1410 ns         1 8R9      -0.141000
     12 C6          12.9300     9.4510   -10.4980 ca         1 8R9      -0.014000
     13 C7          12.3370     9.3000    -9.2240 ca         1 8R9      -0.115500
     14 C8          11.6180    10.3620    -8.6460 ca         1 8R9      -0.099000
     15 C9          11.4860    11.5810    -9.3290 ca         1 8R9      -0.141000
     16 C10         12.0770    11.7410   -10.5920 ca         1 8R9      -0.099000
     17 C11         12.7960    10.6810   -11.1710 ca         1 8R9      -0.115500
     18 O4          16.4150     5.8670   -10.0000 os         1 8R9      -0.401600
     19 C12         16.9110     5.6820    -8.6520 c6         1 8R9       0.142300
     20 C13         17.6950     6.9720    -8.2620 c3         1 8R9       0.230600
     21 O5          16.7870     8.0850    -8.1850 os         1 8R9      -0.583700
     22 S1          17.4610     9.5310    -7.8030 s6         1 8R9       1.496300
     23 O6          18.0870     9.3000    -6.4930 o          1 8R9      -0.705867
     24 O7          16.3190    10.4550    -7.7760 o          1 8R9      -0.705867
     25 O8          18.4180     9.7790    -8.8910 o          1 8R9      -0.705867
     26 C14         17.7750     4.3920    -8.5630 c6         1 8R9       0.103300
     27 O9          18.2690     4.1660    -7.2260 oh         1 8R9      -0.662000
     28 C15         16.8960     3.1920    -8.9970 c6         1 8R9       0.148300
     29 O10         17.6610     1.9760    -8.9140 oh         1 8R9      -0.669000
     30 H1          13.8630     0.1030   -10.7310 hc         1 8R9       0.056033
     31 H2          12.2790     0.9720   -10.5700 hc         1 8R9       0.056033
     32 H3          13.3430     1.0740   -12.0350 hc         1 8R9       0.056033
     33 H4          15.7050     1.5870   -11.4230 hn         1 8R9       0.321500
     34 H5          17.1900     3.3000   -11.1170 h1         1 8R9       0.078700
     35 H6          14.1420     8.7140   -11.9850 hn         1 8R9       0.162000
     36 H7          12.4290     8.3760    -8.6630 ha         1 8R9       0.134000
     37 H8          11.1650    10.2380    -7.6640 ha         1 8R9       0.107500
     38 H9          10.9290    12.4000    -8.8800 ha         1 8R9       0.097000
     39 H10         11.9780    12.6860   -11.1230 ha         1 8R9       0.107500
     40 H11         13.2490    10.8180   -12.1510 ha         1 8R9       0.134000
     41 H12         16.0530     5.5860    -7.9700 h1         1 8R9       0.098700
     42 H13         18.1810     6.8080    -7.2910 h1         1 8R9       0.039700
     43 H14         18.4790     7.1440    -9.0120 h1         1 8R9       0.039700
     44 H15         18.6170     4.4850    -9.2660 h1         1 8R9       0.051700
     45 H16         19.1700     4.5600    -7.1670 ho         1 8R9       0.456000
     46 H17         16.0410     3.1400    -8.3040 h1         1 8R9       0.078700
     47 H18         18.1550     2.0460    -8.0640 ho         1 8R9       0.458000
@<TRIPOS>BOND
     1     1     2 1   
     2     1    30 1   
     3     1    31 1   
     4     1    32 1   
     5     2     3 2   
     6     2     4 1   
     7     4     5 1   
     8     4    33 1   
     9     5     6 1   
    10     5    28 1   
    11     5    34 1   
    12     6     7 2   
    13     6    18 1   
    14     7     8 1   
    15     8     9 1   
    16     9    10 2   
    17     9    11 1   
    18    11    12 1   
    19    11    35 1   
    20    12    13 ar  
    21    12    17 ar  
    22    13    14 ar  
    23    13    36 1   
    24    14    15 ar  
    25    14    37 1   
    26    15    16 ar  
    27    15    38 1   
    28    16    17 ar  
    29    16    39 1   
    30    17    40 1   
    31    18    19 1   
    32    19    20 1   
    33    19    26 1   
    34    19    41 1   
    35    20    21 1   
    36    20    42 1   
    37    20    43 1   
    38    21    22 1   
    39    22    23 1   
    40    22    24 1   
    41    22    25 1   
    42    26    27 1   
    43    26    28 1   
    44    26    44 1   
    45    27    45 1   
    46    28    29 1   
    47    28    46 1   
    48    29    47 1   
@<TRIPOS>SUBSTRUCTURE
     1 8R9         1 TEMP              0 ****  ****    0 ROOT
