@<TRIPOS>MOLECULE
8RA
   30    31     1     0     0
SMALL
No Charge or Current Charge


@<TRIPOS>ATOM
      1 N1          -2.4190     0.0540    -0.5270 n          1 8RA      -0.416800
      2 N3           2.5200    -1.0770    -0.5570 nb         1 8RA      -0.747000
      3 C4          -0.3120    -1.2160     0.0030 c6         1 8RA       0.191800
      4 C5          -0.2730     1.2960    -0.1020 c6         1 8RA       0.191800
      5 C6          -1.6190     1.2580    -0.8780 c6         1 8RA       0.089000
      6 C7           1.9010     0.0080    -0.0600 ca         1 8RA       0.609900
      7 C8           2.5990     1.0510     0.5830 ca         1 8RA      -0.226000
      8 C10          4.6320    -0.1650     0.1950 ca         1 8RA      -0.216000
      9 C1          -4.3670    -1.1530     0.5650 c3         1 8RA      -0.176100
     10 C2          -3.6010     0.1320     0.2440 c          1 8RA       0.610100
     11 C3          -1.6570    -1.2020    -0.7760 c6         1 8RA       0.089000
     12 N2           0.5030     0.0220    -0.2410 nh         1 8RA      -0.770300
     13 C9           3.9930     0.9680     0.7160 ca         1 8RA      -0.038000
     14 C11          3.8620    -1.1580    -0.4300 ca         1 8RA       0.383900
     15 O1          -4.0370     1.2120     0.6190 o          1 8RA      -0.605100
     16 H1          -0.5280    -1.3070     1.0770 h1         1 8RA       0.055200
     17 H2           0.2340    -2.1230    -0.2920 h1         1 8RA       0.055200
     18 H3           0.3100     2.1460    -0.4850 h1         1 8RA       0.055200
     19 H4          -0.4820     1.4910     0.9600 h1         1 8RA       0.055200
     20 H5          -1.4060     1.2390    -1.9570 h1         1 8RA       0.063200
     21 H6          -2.1800     2.1810    -0.6800 h1         1 8RA       0.063200
     22 H7           2.0750     1.9100     0.9860 ha         1 8RA       0.122000
     23 H8           5.7090    -0.2800     0.2710 ha         1 8RA       0.125000
     24 H9          -3.7310    -1.8040     1.1750 hc         1 8RA       0.060700
     25 H10         -5.3210    -0.9570     1.0680 hc         1 8RA       0.060700
     26 H11         -4.5060    -1.7340    -0.3540 hc         1 8RA       0.060700
     27 H12         -2.2350    -2.0950    -0.5110 h1         1 8RA       0.063200
     28 H13         -1.4410    -1.2740    -1.8510 h1         1 8RA       0.063200
     29 H14          4.5580     1.7560     1.2100 ha         1 8RA       0.114000
     30 H15          4.3360    -2.0480    -0.8420 h4         1 8RA       0.015100
@<TRIPOS>BOND
     1     1     5 1   
     2     1    10 1   
     3     1    11 1   
     4     2     6 ar  
     5     2    14 ar  
     6     3    11 1   
     7     3    12 1   
     8     3    16 1   
     9     3    17 1   
    10     4     5 1   
    11     4    12 1   
    12     4    18 1   
    13     4    19 1   
    14     5    20 1   
    15     5    21 1   
    16     6     7 ar  
    17     6    12 1   
    18     7    13 ar  
    19     7    22 1   
    20     8    13 ar  
    21     8    14 ar  
    22     8    23 1   
    23     9    10 1   
    24     9    24 1   
    25     9    25 1   
    26     9    26 1   
    27    10    15 2   
    28    11    27 1   
    29    11    28 1   
    30    13    29 1   
    31    14    30 1   
@<TRIPOS>SUBSTRUCTURE
     1 8RA         1 TEMP              0 ****  ****    0 ROOT
