@<TRIPOS>MOLECULE
8RA
   30    31     1     0     0
SMALL
abcg2


@<TRIPOS>ATOM
      1 N1          -2.3570     0.0760    -0.4220 n          1 8RA      -0.416800
      2 N3           2.4240    -1.1800    -0.2440 nb         1 8RA      -0.747000
      3 C4          -0.3020    -1.1790    -0.0570 c6         1 8RA       0.191800
      4 C5          -0.2660     1.2570     0.0600 c6         1 8RA       0.191800
      5 C6          -1.6000     1.2830    -0.6710 c6         1 8RA       0.089000
      6 C7           1.8300    -0.0030    -0.0480 ca         1 8RA       0.609900
      7 C8           2.5810     1.1330     0.3150 ca         1 8RA      -0.226000
      8 C10          4.5660    -0.2120     0.1960 ca         1 8RA      -0.216000
      9 C1          -4.2450    -1.2210     0.4360 c3         1 8RA      -0.176100
     10 C2          -3.5580     0.1030     0.2000 c          1 8RA       0.610100
     11 C3          -1.6210    -1.1100    -0.8050 c6         1 8RA       0.089000
     12 N2           0.4670     0.0420    -0.2360 nh         1 8RA      -0.770300
     13 C9           3.9510     1.0140     0.4250 ca         1 8RA      -0.038000
     14 C11          3.7410    -1.2730    -0.1270 ca         1 8RA       0.383900
     15 O1          -4.0820     1.1540     0.5490 o          1 8RA      -0.605100
     16 H1          -0.5020    -1.3550     1.0090 h1         1 8RA       0.055200
     17 H2           0.2720    -2.0230    -0.4290 h1         1 8RA       0.055200
     18 H3           0.2970     2.1240    -0.2820 h1         1 8RA       0.055200
     19 H4          -0.4300     1.3740     1.1410 h1         1 8RA       0.055200
     20 H5          -1.4210     1.3720    -1.7470 h1         1 8RA       0.063200
     21 H6          -2.1670     2.1530    -0.3540 h1         1 8RA       0.063200
     22 H7           2.1150     2.0830     0.5260 ha         1 8RA       0.122000
     23 H8           5.6360    -0.3410     0.2770 ha         1 8RA       0.125000
     24 H9          -3.6580    -1.8790     1.0770 hc         1 8RA       0.060700
     25 H10         -5.2010    -1.0390     0.9210 hc         1 8RA       0.060700
     26 H11         -4.4290    -1.7520    -0.4990 hc         1 8RA       0.060700
     27 H12         -2.1890    -2.0130    -0.6030 h1         1 8RA       0.063200
     28 H13         -1.4330    -1.0770    -1.8830 h1         1 8RA       0.063200
     29 H14          4.5380     1.8800     0.7030 ha         1 8RA       0.114000
     30 H15          4.1610    -2.2590    -0.3000 h4         1 8RA       0.015100
@<TRIPOS>BOND
     1     1     5 1   
     2     1    10 1   
     3     1    11 1   
     4     2     6 ar  
     5     2    14 ar  
     6     3    11 1   
     7     3    12 1   
     8     3    16 1   
     9     3    17 1   
    10     4     5 1   
    11     4    12 1   
    12     4    18 1   
    13     4    19 1   
    14     5    20 1   
    15     5    21 1   
    16     6     7 ar  
    17     6    12 1   
    18     7    13 ar  
    19     7    22 1   
    20     8    13 ar  
    21     8    14 ar  
    22     8    23 1   
    23     9    10 1   
    24     9    24 1   
    25     9    25 1   
    26     9    26 1   
    27    10    15 2   
    28    11    27 1   
    29    11    28 1   
    30    13    29 1   
    31    14    30 1   
@<TRIPOS>SUBSTRUCTURE
     1 8RA         1 TEMP              0 ****  ****    0 ROOT
