@<TRIPOS>MOLECULE
8RD
   67    71     1     0     0
SMALL
bcc


@<TRIPOS>ATOM
      1 C10         -2.6850     0.3620     0.5690 cc         1 8RD      -0.041000
      2 C11         -3.9310     0.1040     0.1010 cd         1 8RD      -0.066300
      3 C16         -0.4330     3.5500    -1.0770 ca         1 8RD       0.184900
      4 C15         -1.6890     3.8200    -0.5800 ca         1 8RD      -0.212000
      5 C14         -2.4090     2.7580    -0.0480 ca         1 8RD      -0.057000
      6 C13         -1.8980     1.4680    -0.0110 ca         1 8RD      -0.099000
      7 C18          0.1240     2.2840    -1.0730 ca         1 8RD      -0.271000
      8 C19         -0.6170     1.2340    -0.5400 ca         1 8RD       0.197100
      9 C21          1.1430    -0.3350    -0.8860 c3         1 8RD       0.140400
     10 C22          1.3810    -1.8140    -0.6270 c3         1 8RD       0.000900
     11 C01         -8.3410     0.9330    -1.2540 c3         1 8RD       0.140100
     12 C04         -5.9280    -1.3600     0.4240 cc         1 8RD       0.311800
     13 C07         -4.2130    -1.6510     1.7300 cd         1 8RD      -0.051300
     14 C08         -2.9160    -1.3980     2.2340 cd         1 8RD      -0.096000
     15 C09         -2.1760    -0.4170     1.6600 cc         1 8RD      -0.090000
     16 C23          2.7990    -2.1720    -0.9260 cc         1 8RD      -0.229600
     17 C24          3.2950    -2.9000    -1.9900 cd         1 8RD      -0.081600
     18 C25          2.6070    -3.5740    -3.1210 c3         1 8RD      -0.033800
     19 C29          3.9500    -1.7810    -0.2160 cc         1 8RD       0.268800
     20 C30          3.9780    -1.0460     1.0750 c          1 8RD       0.608600
     21 C33          4.9370     0.7260     2.4430 c6         1 8RD       0.062500
     22 C34          4.4890     2.1690     2.2900 c6         1 8RD       0.107900
     23 C36          4.9980     2.1490     0.0210 c6         1 8RD       0.107900
     24 C37          5.4580     0.7000     0.0780 c6         1 8RD       0.062500
     25 F17          0.2920     4.5520    -1.5940 f          1 8RD      -0.138900
     26 N05         -6.1860    -2.3320     1.2560 nd         1 8RD      -0.339700
     27 N06         -5.1340    -2.5250     2.0710 nc         1 8RD      -0.095000
     28 N12         -4.6730    -0.8860     0.6850 na         1 8RD      -0.083200
     29 N26          4.6380    -2.9200    -1.8450 na         1 8RD       0.120400
     30 N28          5.0510    -2.2400    -0.7840 nd         1 8RD      -0.496800
     31 N32          4.7930     0.0220     1.1790 n          1 8RD      -0.467800
     32 O20         -0.1900    -0.0350    -0.5080 os         1 8RD      -0.315900
     33 O31          3.2710    -1.4400     1.9950 o          1 8RD      -0.593100
     34 O35          5.1830     2.8150     1.2460 os         1 8RD      -0.394600
     35 H1          -4.3790     0.6350    -0.7280 h4         1 8RD       0.161000
     36 H2          -2.0920     4.8230    -0.5920 ha         1 8RD       0.157000
     37 H3          -3.3900     2.9480     0.3690 ha         1 8RD       0.140000
     38 H4           1.1050     2.1370    -1.5030 ha         1 8RD       0.156000
     39 H5           1.8430     0.2740    -0.3000 h1         1 8RD       0.037700
     40 H6           1.3080    -0.1050    -1.9440 h1         1 8RD       0.037700
     41 H7           1.1450    -2.0420     0.4140 hc         1 8RD       0.072700
     42 H8           0.7010    -2.4040    -1.2460 hc         1 8RD       0.072700
     43 H9          -7.8850     1.0420    -2.2470 h1         1 8RD       0.033700
     44 H10         -9.1910     0.2560    -1.3550 h1         1 8RD       0.033700
     45 H11         -8.7280     1.9060    -0.9520 h1         1 8RD       0.033700
     46 H12         -6.2770    -0.7660    -1.5840 h1         1 8RD       0.055200
     47 H13         -7.6190    -1.5610    -0.7790 h1         1 8RD       0.055200
     48 H14         -2.5460    -1.9840     3.0630 ha         1 8RD       0.168000
     49 H15         -1.1890    -0.1990     2.0440 ha         1 8RD       0.153000
     50 H16          2.9390    -3.1860    -4.0850 hc         1 8RD       0.054700
     51 H17          2.7880    -4.6500    -3.1200 hc         1 8RD       0.054700
     52 H18          1.5310    -3.4220    -3.0580 hc         1 8RD       0.054700
     53 H19          5.7320    -2.9510    -3.6350 h1         1 8RD       0.060700
     54 H20          6.5420    -3.6290    -2.2120 h1         1 8RD       0.060700
     55 H21          5.2530    -4.5380    -3.0110 h1         1 8RD       0.060700
     56 H22          5.9890     0.6930     2.7450 h1         1 8RD       0.068450
     57 H23          4.3510     0.2330     3.2140 h1         1 8RD       0.068450
     58 H24          3.4040     2.1990     2.1110 h1         1 8RD       0.052450
     59 H25          4.6930     2.7200     3.2090 h1         1 8RD       0.052450
     60 H26          5.5720     2.6850    -0.7370 h1         1 8RD       0.052450
     61 H27          3.9390     2.1770    -0.2790 h1         1 8RD       0.052450
     62 H28          5.2310     0.2220    -0.8690 h1         1 8RD       0.068450
     63 H29          6.5420     0.6510     0.2240 h1         1 8RD       0.068450
     64 H30         -6.7160     1.1310    -0.0770 hn         1 8RD       0.347800
     65 C03         -6.8270    -0.8250    -0.6310 c3         1 8RD       0.150500
     66 C27          5.5920    -3.5430    -2.7310 c3         1 8RD       0.036600
     67 N02         -7.4340     0.4360    -0.2370 n7         1 8RD      -0.792200
@<TRIPOS>BOND
     1     1     2 2   
     2     1     6 1   
     3     1    15 1   
     4     2    28 1   
     5     2    35 1   
     6     3     4 ar  
     7     3     7 ar  
     8     3    25 1   
     9     4     5 ar  
    10     4    36 1   
    11     5     6 ar  
    12     5    37 1   
    13     6     8 ar  
    14     7     8 ar  
    15     7    38 1   
    16     8    32 1   
    17     9    10 1   
    18     9    32 1   
    19     9    39 1   
    20     9    40 1   
    21    10    16 1   
    22    10    41 1   
    23    10    42 1   
    24    11    43 1   
    25    11    44 1   
    26    11    45 1   
    27    11    67 1   
    28    12    26 2   
    29    12    28 1   
    30    12    65 1   
    31    13    14 1   
    32    13    27 2   
    33    13    28 1   
    34    14    15 2   
    35    14    48 1   
    36    15    49 1   
    37    16    17 2   
    38    16    19 1   
    39    17    18 1   
    40    17    29 1   
    41    18    50 1   
    42    18    51 1   
    43    18    52 1   
    44    19    20 1   
    45    19    30 2   
    46    20    31 1   
    47    20    33 2   
    48    21    22 1   
    49    21    31 1   
    50    21    56 1   
    51    21    57 1   
    52    22    34 1   
    53    22    58 1   
    54    22    59 1   
    55    23    24 1   
    56    23    34 1   
    57    23    60 1   
    58    23    61 1   
    59    24    31 1   
    60    24    62 1   
    61    24    63 1   
    62    26    27 1   
    63    29    30 1   
    64    29    66 1   
    65    46    65 1   
    66    47    65 1   
    67    53    66 1   
    68    54    66 1   
    69    55    66 1   
    70    64    67 1   
    71    65    67 1   
@<TRIPOS>SUBSTRUCTURE
     1 8RD         1 TEMP              0 ****  ****    0 ROOT
