@<TRIPOS>MOLECULE
8RD
   67    71     1     0     0
SMALL
No Charge or Current Charge


@<TRIPOS>ATOM
      1 C10         -3.1570     0.2920     0.2260 cc         1 8RD      -0.041000
      2 C11         -4.4950    -0.0200    -0.0510 cd         1 8RD      -0.099000
      3 C16         -1.5200     3.3750    -2.3120 ca         1 8RD       0.220000
      4 C15         -2.8500     3.4360    -1.8890 ca         1 8RD      -0.194000
      5 C14         -3.3730     2.4220    -1.0720 ca         1 8RD      -0.039000
      6 C13         -2.5720     1.3280    -0.6600 ca         1 8RD      -0.099000
      7 C18         -0.7070     2.3050    -1.9300 ca         1 8RD      -0.253000
      8 C19         -1.2200     1.2760    -1.1080 ca         1 8RD       0.197100
      9 C21          0.9280     0.0440    -1.2030 c3         1 8RD       0.163600
     10 C22          1.4530    -1.2930    -0.6470 c3         1 8RD       0.000900
     11 C01         -9.4010     0.4960    -0.5400 c3         1 8RD       0.140100
     12 C04         -6.3530    -1.5300     0.6760 cc         1 8RD       0.311800
     13 C07         -4.3420    -1.7110     1.6610 cd         1 8RD      -0.102000
     14 C08         -2.9750    -1.4560     1.9500 cd         1 8RD      -0.078000
     15 C09         -2.3970    -0.4510     1.2120 cc         1 8RD      -0.072000
     16 C23          2.8910    -1.5740    -1.0400 cc         1 8RD      -0.164300
     17 C24          3.2960    -2.3870    -2.0600 cd         1 8RD      -0.132300
     18 C25          2.4740    -3.1920    -3.0400 c3         1 8RD      -0.033800
     19 C29          4.0840    -1.0480    -0.4390 cc         1 8RD       0.203500
     20 C30          4.0600    -0.0790     0.7520 c          1 8RD       0.541600
     21 C33          5.2180     1.1960     2.6010 c6         1 8RD       0.062500
     22 C34          6.5070     1.9230     3.0560 c6         1 8RD       0.131100
     23 C36          7.8500     0.8790     1.4030 c6         1 8RD       0.131100
     24 C37          6.6580     0.0910     0.7980 c6         1 8RD       0.062500
     25 F17         -1.0200     4.3510    -3.0980 f          1 8RD      -0.174000
     26 N05         -6.3200    -2.4820     1.6030 nd         1 8RD      -0.339700
     27 N06         -5.1530    -2.6070     2.1960 nc         1 8RD      -0.095000
     28 N12         -5.0740    -1.0380     0.7230 na         1 8RD       0.018200
     29 N26          4.6880    -2.3440    -2.0350 na         1 8RD       0.141800
     30 N28          5.1710    -1.5210    -1.0420 nd         1 8RD      -0.496800
     31 N32          5.2820     0.4520     1.2920 n          1 8RD      -0.400800
     32 O20         -0.4430     0.1790    -0.7910 os         1 8RD      -0.339100
     33 O31          3.0130     0.2740     1.2870 o          1 8RD      -0.593100
     34 O35          7.6610     1.1090     2.8060 os         1 8RD      -0.441000
     35 H1          -5.1110     0.4350    -0.8160 h4         1 8RD       0.143000
     36 H2          -3.4740     4.2750    -2.1880 ha         1 8RD       0.139000
     37 H3          -4.4010     2.5200    -0.7300 ha         1 8RD       0.122000
     38 H4           0.3150     2.2890    -2.2930 ha         1 8RD       0.138000
     39 H5           1.5340     0.8730    -0.8150 h1         1 8RD       0.037700
     40 H6           1.0060     0.0340    -2.2980 h1         1 8RD       0.037700
     41 H7           1.3280    -1.3230     0.4410 hc         1 8RD       0.072700
     42 H8           0.8080    -2.0940    -1.0250 hc         1 8RD       0.072700
     43 H9          -9.0560     0.8060    -1.5360 h1         1 8RD       0.033700
     44 H10        -10.1280    -0.3170    -0.6660 h1         1 8RD       0.033700
     45 H11         -9.9200     1.3470    -0.0790 h1         1 8RD       0.033700
     46 H12         -7.0940    -0.8860    -1.2190 h1         1 8RD       0.055200
     47 H13         -8.1710    -1.9720    -0.3410 h1         1 8RD       0.055200
     48 H14         -2.4240    -2.0120     2.7030 ha         1 8RD       0.150000
     49 H15         -1.3630    -0.1880     1.4020 ha         1 8RD       0.135000
     50 H16          3.0150    -3.3730    -3.9760 hc         1 8RD       0.054700
     51 H17          2.2040    -4.1660    -2.6150 hc         1 8RD       0.054700
     52 H18          1.5450    -2.6720    -3.3000 hc         1 8RD       0.054700
     53 H19          5.5230    -2.6600    -3.9430 h1         1 8RD       0.060700
     54 H20          6.6430    -2.9380    -2.5770 h1         1 8RD       0.060700
     55 H21          5.3580    -4.1280    -2.9320 h1         1 8RD       0.060700
     56 H22          4.9390     0.4770     3.3850 h1         1 8RD       0.068450
     57 H23          4.4110     1.9420     2.5580 h1         1 8RD       0.068450
     58 H24          6.6120     2.8740     2.5120 h1         1 8RD       0.052450
     59 H25          6.4480     2.1530     4.1290 h1         1 8RD       0.052450
     60 H26          8.7840     0.3200     1.2470 h1         1 8RD       0.052450
     61 H27          7.9510     1.8480     0.8920 h1         1 8RD       0.052450
     62 H28          6.7070     0.2530    -0.2870 h1         1 8RD       0.068450
     63 H29          6.8270    -0.9790     0.9860 h1         1 8RD       0.068450
     64 H30         -7.6210     0.8580     0.4030 hn         1 8RD       0.403000
     65 C03         -7.5020    -1.1080    -0.2230 c3         1 8RD       0.150500
     66 C27          5.6110    -3.0620    -2.9260 c3         1 8RD       0.065900
     67 N02         -8.2660     0.0620     0.2990 n7         1 8RD      -0.847400
@<TRIPOS>BOND
     1     1     2 2   
     2     1     6 1   
     3     1    15 1   
     4     2    28 1   
     5     2    35 1   
     6     3     4 ar  
     7     3     7 ar  
     8     3    25 1   
     9     4     5 ar  
    10     4    36 1   
    11     5     6 ar  
    12     5    37 1   
    13     6     8 ar  
    14     7     8 ar  
    15     7    38 1   
    16     8    32 1   
    17     9    10 1   
    18     9    32 1   
    19     9    39 1   
    20     9    40 1   
    21    10    16 1   
    22    10    41 1   
    23    10    42 1   
    24    11    43 1   
    25    11    44 1   
    26    11    45 1   
    27    11    67 1   
    28    12    26 2   
    29    12    28 1   
    30    12    65 1   
    31    13    14 1   
    32    13    27 2   
    33    13    28 1   
    34    14    15 2   
    35    14    48 1   
    36    15    49 1   
    37    16    17 2   
    38    16    19 1   
    39    17    18 1   
    40    17    29 1   
    41    18    50 1   
    42    18    51 1   
    43    18    52 1   
    44    19    20 1   
    45    19    30 2   
    46    20    31 1   
    47    20    33 2   
    48    21    22 1   
    49    21    31 1   
    50    21    56 1   
    51    21    57 1   
    52    22    34 1   
    53    22    58 1   
    54    22    59 1   
    55    23    24 1   
    56    23    34 1   
    57    23    60 1   
    58    23    61 1   
    59    24    31 1   
    60    24    62 1   
    61    24    63 1   
    62    26    27 1   
    63    29    30 1   
    64    29    66 1   
    65    46    65 1   
    66    47    65 1   
    67    53    66 1   
    68    54    66 1   
    69    55    66 1   
    70    64    67 1   
    71    65    67 1   
@<TRIPOS>SUBSTRUCTURE
     1 8RD         1 TEMP              0 ****  ****    0 ROOT
