@<TRIPOS>MOLECULE
8RE
   25    24     1     0     0
SMALL
bcc


@<TRIPOS>ATOM
      1 O            5.2310   -21.2910    76.5750 o          1 8RE      -0.829300
      2 C            4.1950   -21.1880    77.2590 c          1 8RE       0.938600
      3 CA           4.1030   -22.0860    78.5300 c3         1 8RE       0.024500
      4 N            3.0680   -21.5920    79.4410 n8         1 8RE      -0.903800
      5 CB           3.8240   -23.5710    78.2020 c3         1 8RE       0.182100
      6 OH1          3.2030   -23.6860    76.9380 oh         1 8RE      -0.559800
      7 CG           5.0320   -24.5040    78.3380 c3         1 8RE       0.115100
      8 OH2          4.4840   -25.8160    78.3110 oh         1 8RE      -0.627800
      9 CD           6.1220   -24.3200    77.2930 c3         1 8RE      -0.123400
     10 CE           7.3710   -25.1520    77.5560 c3         1 8RE       0.148800
     11 NZ           8.3940   -24.8580    76.5620 n8         1 8RE      -0.870800
     12 HA           5.0870   -22.0420    79.0140 h1         1 8RE       0.010700
     13 H            3.4390   -21.5070    80.3770 hn         1 8RE       0.333300
     14 H2           2.7980   -20.6650    79.1390 hn         1 8RE       0.333300
     15 HB2          3.1240   -23.8990    78.9840 h1         1 8RE       0.025700
     16 H7           3.0090   -24.6190    76.7960 ho         1 8RE       0.378000
     17 HG2          5.4690   -24.3000    79.3290 h1         1 8RE       0.018700
     18 H9           5.2000   -26.4570    78.3000 ho         1 8RE       0.386000
     19 HD2          6.4020   -23.2670    77.2610 hc         1 8RE       0.093700
     20 HD3          5.7230   -24.5620    76.3030 hc         1 8RE       0.093700
     21 HE2          7.1210   -26.2240    77.5950 h1         1 8RE       0.005200
     22 HE3          7.7690   -24.8970    78.5430 h1         1 8RE       0.005200
     23 HZ1          9.2130   -25.4240    76.7460 hn         1 8RE       0.324800
     24 HZ2          8.0620   -25.1520    75.6500 hn         1 8RE       0.324800
     25 OXT          3.2360   -20.4230    77.0440 o          1 8RE      -0.829300
@<TRIPOS>BOND
     1     1     2 1   
     2     2     3 1   
     3     2    25 1   
     4     3     4 1   
     5     3     5 1   
     6     3    12 1   
     7     4    13 1   
     8     4    14 1   
     9     5     6 1   
    10     5     7 1   
    11     5    15 1   
    12     6    16 1   
    13     7     8 1   
    14     7     9 1   
    15     7    17 1   
    16     8    18 1   
    17     9    10 1   
    18     9    19 1   
    19     9    20 1   
    20    10    11 1   
    21    10    21 1   
    22    10    22 1   
    23    11    23 1   
    24    11    24 1   
@<TRIPOS>SUBSTRUCTURE
     1 8RE         1 TEMP              0 ****  ****    0 ROOT
