@<TRIPOS>MOLECULE
8RH
   64    68     1     0     0
SMALL
No Charge or Current Charge


@<TRIPOS>ATOM
      1 C1          -1.6940     0.7200    -0.9770 cc         1 8RH       0.598300
      2 C2          -3.3480    -0.8270    -0.2620 cd         1 8RH       0.444000
      3 C3          -3.0610     0.3870    -0.7900 cc         1 8RH      -0.317000
      4 C8          -0.0460    -2.2410     0.2850 cc         1 8RH      -0.068300
      5 C9          -0.9260    -3.2100     0.7250 cd         1 8RH      -0.044400
      6 C11         -5.8770    -0.5880    -0.2870 c3         1 8RH       0.231800
      7 C12         -7.0580    -1.4780     0.1340 c3         1 8RH      -0.176400
      8 C13         -8.4340    -0.8240    -0.0990 c3         1 8RH       0.309000
      9 O18         -1.4810     1.9820    -1.5070 os         1 8RH      -0.334400
     10 C20          1.0010     3.4340     0.8730 ca         1 8RH       0.095000
     11 F36          1.1660     3.6290     2.2040 f          1 8RH      -0.150000
     12 C22          1.9970     3.8620    -0.0290 ca         1 8RH       0.130100
     13 O37          3.1340     4.4670     0.4780 os         1 8RH      -0.324100
     14 C38          4.2050     4.9260    -0.3650 c3         1 8RH       0.141900
     15 C24          1.8030     3.6720    -1.4170 ca         1 8RH      -0.185000
     16 C23          0.6340     3.0480    -1.8890 ca         1 8RH      -0.052000
     17 C19         -0.3450     2.5940    -0.9890 ca         1 8RH       0.046100
     18 C21         -0.1690     2.8110     0.4000 ca         1 8RH       0.176000
     19 F35         -1.1290     2.4400     1.2830 f          1 8RH      -0.143000
     20 N5          -0.6080    -0.0090    -0.6980 nd         1 8RH      -0.603800
     21 N6          -0.9070    -1.2390    -0.1310 na         1 8RH       0.294900
     22 N7          -2.1880    -2.8440     0.5850 nc         1 8RH      -0.281600
     23 C4          -2.2220    -1.6320     0.0590 cd         1 8RH      -0.181000
     24 N10         -4.6130    -1.2880    -0.0300 nu         1 8RH      -0.947200
     25 F16         -8.5540     0.3240     0.6050 f          1 8RH      -0.113000
     26 F15         -8.6220    -0.5370    -1.4070 f          1 8RH      -0.113000
     27 F14         -9.4260    -1.6550     0.2900 f          1 8RH      -0.113000
     28 C17          1.4190    -2.3130     0.3660 ca         1 8RH       0.001200
     29 C28          2.2000    -1.1470     0.4160 ca         1 8RH      -0.086000
     30 C29          3.5980    -1.2220     0.4970 ca         1 8RH      -0.095000
     31 C27          4.2680    -2.4710     0.5300 ca         1 8RH      -0.144600
     32 C25          3.4780    -3.6560     0.4800 ca         1 8RH      -0.027300
     33 C30          4.0900    -5.0560     0.4700 c3         1 8RH      -0.050800
     34 C26          2.0720    -3.5590     0.4020 ca         1 8RH      -0.106000
     35 C31          5.7880    -2.5030     0.6300 c          1 8RH       0.615700
     36 O33          6.4170    -3.4420     1.1000 o          1 8RH      -0.589100
     37 N32          6.4410    -1.3650     0.2010 ns         1 8RH      -0.487900
     38 C34          7.8660    -1.1780     0.2360 cx         1 8RH       0.054700
     39 C42          8.4320     0.0090    -0.5030 cx         1 8RH      -0.136400
     40 C41          8.6300    -1.3840    -1.0490 cx         1 8RH      -0.136400
     41 H1          -3.8250     1.0980    -1.0690 ha         1 8RH       0.149000
     42 H2          -0.7060    -4.1770     1.1680 h4         1 8RH       0.234000
     43 H3          -5.9620    -0.3440    -1.3560 h1         1 8RH       0.064200
     44 H4          -5.9070     0.3560     0.2780 h1         1 8RH       0.064200
     45 H5          -7.0180    -2.4210    -0.4240 hc         1 8RH       0.089700
     46 H6          -6.9640    -1.7270     1.1980 hc         1 8RH       0.089700
     47 H7           5.0050     5.3670     0.2430 h1         1 8RH       0.048367
     48 H8           4.6340     4.0950    -0.9390 h1         1 8RH       0.048367
     49 H9           3.8500     5.6930    -1.0650 h1         1 8RH       0.048367
     50 H10          2.5440     3.9980    -2.1410 ha         1 8RH       0.130000
     51 H11          0.4910     2.9010    -2.9580 ha         1 8RH       0.136000
     52 H12         -4.6420    -2.2240     0.3780 hn         1 8RH       0.524000
     53 H13          1.7300    -0.1680     0.4130 ha         1 8RH       0.131000
     54 H14          4.1500    -0.2870     0.5610 ha         1 8RH       0.123000
     55 H15          4.5210    -5.3060     1.4460 hc         1 8RH       0.050700
     56 H16          3.3450    -5.8270     0.2400 hc         1 8RH       0.050700
     57 H17          4.8780    -5.1410    -0.2870 hc         1 8RH       0.050700
     58 H18          1.4820    -4.4700     0.3510 ha         1 8RH       0.117000
     59 H19          5.8580    -0.6370    -0.1890 hn         1 8RH       0.324500
     60 H20          8.3400    -1.4740     1.1730 h1         1 8RH       0.088700
     61 H21          7.7430     0.6660    -1.0280 hc         1 8RH       0.075450
     62 H22          9.2940     0.5090    -0.0660 hc         1 8RH       0.075450
     63 H23          9.6230    -1.8220    -0.9780 hc         1 8RH       0.075450
     64 H24          8.0690    -1.6670    -1.9360 hc         1 8RH       0.075450
@<TRIPOS>BOND
     1     1     3 1   
     2     1     9 1   
     3     1    20 2   
     4     2     3 2   
     5     2    23 1   
     6     2    24 1   
     7     3    41 1   
     8     4     5 2   
     9     4    21 1   
    10     4    28 1   
    11     5    22 1   
    12     5    42 1   
    13     6     7 1   
    14     6    24 1   
    15     6    43 1   
    16     6    44 1   
    17     7     8 1   
    18     7    45 1   
    19     7    46 1   
    20     8    25 1   
    21     8    26 1   
    22     8    27 1   
    23     9    17 1   
    24    10    11 1   
    25    10    12 ar  
    26    10    18 ar  
    27    12    13 1   
    28    12    15 ar  
    29    13    14 1   
    30    14    47 1   
    31    14    48 1   
    32    14    49 1   
    33    15    16 ar  
    34    15    50 1   
    35    16    17 ar  
    36    16    51 1   
    37    17    18 ar  
    38    18    19 1   
    39    20    21 1   
    40    21    23 1   
    41    22    23 2   
    42    24    52 1   
    43    28    29 ar  
    44    28    34 ar  
    45    29    30 ar  
    46    29    53 1   
    47    30    31 ar  
    48    30    54 1   
    49    31    32 ar  
    50    31    35 1   
    51    32    33 1   
    52    32    34 ar  
    53    33    55 1   
    54    33    56 1   
    55    33    57 1   
    56    34    58 1   
    57    35    36 2   
    58    35    37 1   
    59    37    38 1   
    60    37    59 1   
    61    38    39 1   
    62    38    40 1   
    63    38    60 1   
    64    39    40 1   
    65    39    61 1   
    66    39    62 1   
    67    40    63 1   
    68    40    64 1   
@<TRIPOS>SUBSTRUCTURE
     1 8RH         1 TEMP              0 ****  ****    0 ROOT
