@<TRIPOS>MOLECULE
8RH
   64    68     1     0     0
SMALL
abcg2


@<TRIPOS>ATOM
      1 C1          -1.6930     0.7630    -0.0940 cc         1 8RH       0.598300
      2 C2          -3.4230    -0.8850    -0.0010 cd         1 8RH       0.444000
      3 C3          -3.0640     0.4420    -0.1500 cc         1 8RH      -0.317000
      4 C8          -0.2470    -2.3840     0.5050 cc         1 8RH      -0.068300
      5 C9          -1.0900    -3.4770     0.5650 cd         1 8RH      -0.044400
      6 C11         -5.8300    -0.5270    -0.2450 c3         1 8RH       0.231800
      7 C12         -7.0670    -1.4110    -0.3270 c3         1 8RH      -0.176400
      8 C13         -8.3350    -0.6260    -0.5170 c3         1 8RH       0.309000
      9 O18         -1.3630     2.0660    -0.2720 os         1 8RH      -0.334400
     10 C20          2.0520     2.5710     0.9110 ca         1 8RH       0.095000
     11 F36          2.7190     2.5410     2.0690 f          1 8RH      -0.150000
     12 C22          2.7510     2.7680    -0.2810 ca         1 8RH       0.130100
     13 O37          4.0790     2.9060    -0.1640 os         1 8RH      -0.324100
     14 C38          4.8260     3.1640    -1.3410 c3         1 8RH       0.141900
     15 C24          2.0270     2.7910    -1.4670 ca         1 8RH      -0.185000
     16 C23          0.6540     2.5680    -1.4610 ca         1 8RH      -0.052000
     17 C19         -0.0180     2.3470    -0.2800 ca         1 8RH       0.046100
     18 C21          0.6910     2.3720     0.9130 ca         1 8RH       0.176000
     19 F35          0.0660     2.1520     2.0680 f          1 8RH      -0.143000
     20 N5          -0.7150    -0.0600     0.1010 nd         1 8RH      -0.603800
     21 N6          -1.0890    -1.3290     0.2820 na         1 8RH       0.294900
     22 N7          -2.3830    -3.1200     0.3950 nc         1 8RH      -0.281600
     23 C4          -2.3580    -1.8130     0.2220 cd         1 8RH      -0.181000
     24 N10         -4.6700    -1.3620    -0.0540 nu         1 8RH      -0.947200
     25 F16         -8.5590     0.2380     0.4850 f          1 8RH      -0.113000
     26 F15         -8.3220     0.0970    -1.6480 f          1 8RH      -0.113000
     27 F14         -9.4050    -1.4290    -0.5830 f          1 8RH      -0.113000
     28 C17          1.1980    -2.2390     0.6260 ca         1 8RH       0.001200
     29 C28          1.7660    -1.1520     1.2900 ca         1 8RH      -0.086000
     30 C29          3.1400    -1.0140     1.3290 ca         1 8RH      -0.095000
     31 C27          3.9790    -1.9560     0.7410 ca         1 8RH      -0.144600
     32 C25          3.4300    -3.0850     0.1170 ca         1 8RH      -0.027300
     33 C30          4.2780    -4.1420    -0.5310 c3         1 8RH      -0.050800
     34 C26          2.0450    -3.1940     0.0620 ca         1 8RH      -0.106000
     35 C31          5.4580    -1.7460     0.8090 c          1 8RH       0.615700
     36 O33          6.2280    -2.6140     1.1890 o          1 8RH      -0.589100
     37 N32          5.8640    -0.5210     0.4200 ns         1 8RH      -0.487900
     38 C34          7.2290    -0.1090     0.4520 cx         1 8RH       0.054700
     39 C42          7.7390     0.6780    -0.7130 cx         1 8RH      -0.136400
     40 C41          8.1960    -0.7320    -0.5030 cx         1 8RH      -0.136400
     41 H1          -3.7920     1.2250    -0.3070 ha         1 8RH       0.149000
     42 H2          -0.8010    -4.5020     0.7430 h4         1 8RH       0.234000
     43 H3          -5.7170     0.0520    -1.1660 h1         1 8RH       0.064200
     44 H4          -5.9210     0.1860     0.5800 h1         1 8RH       0.064200
     45 H5          -6.9720    -2.1110    -1.1600 hc         1 8RH       0.089700
     46 H6          -7.1670    -2.0000     0.5880 hc         1 8RH       0.089700
     47 H7           5.8620     3.2630    -1.0280 h1         1 8RH       0.048367
     48 H8           4.7450     2.3440    -2.0590 h1         1 8RH       0.048367
     49 H9           4.5120     4.0920    -1.8240 h1         1 8RH       0.048367
     50 H10          2.5210     2.9560    -2.4140 ha         1 8RH       0.130000
     51 H11          0.1100     2.5480    -2.3960 ha         1 8RH       0.136000
     52 H12         -4.7950    -2.3480     0.1150 hn         1 8RH       0.524000
     53 H13          1.1450    -0.4140     1.7730 ha         1 8RH       0.131000
     54 H14          3.5640    -0.1630     1.8490 ha         1 8RH       0.123000
     55 H15          4.8280    -4.7230     0.2080 hc         1 8RH       0.050700
     56 H16          3.6590    -4.8300    -1.1030 hc         1 8RH       0.050700
     57 H17          5.0140    -3.7110    -1.2110 hc         1 8RH       0.050700
     58 H18          1.6090    -4.0370    -0.4620 ha         1 8RH       0.117000
     59 H19          5.1720     0.1500     0.1250 hn         1 8RH       0.324500
     60 H20          7.6050     0.1610     1.4340 h1         1 8RH       0.088700
     61 H21          7.0530     0.8600    -1.5320 hc         1 8RH       0.075450
     62 H22          8.4250     1.4890    -0.5110 hc         1 8RH       0.075450
     63 H23          9.2050    -0.9070    -0.1540 hc         1 8RH       0.075450
     64 H24          7.8140    -1.4880    -1.1760 hc         1 8RH       0.075450
@<TRIPOS>BOND
     1     1     3 1   
     2     1     9 1   
     3     1    20 2   
     4     2     3 2   
     5     2    23 1   
     6     2    24 1   
     7     3    41 1   
     8     4     5 2   
     9     4    21 1   
    10     4    28 1   
    11     5    22 1   
    12     5    42 1   
    13     6     7 1   
    14     6    24 1   
    15     6    43 1   
    16     6    44 1   
    17     7     8 1   
    18     7    45 1   
    19     7    46 1   
    20     8    25 1   
    21     8    26 1   
    22     8    27 1   
    23     9    17 1   
    24    10    11 1   
    25    10    12 ar  
    26    10    18 ar  
    27    12    13 1   
    28    12    15 ar  
    29    13    14 1   
    30    14    47 1   
    31    14    48 1   
    32    14    49 1   
    33    15    16 ar  
    34    15    50 1   
    35    16    17 ar  
    36    16    51 1   
    37    17    18 ar  
    38    18    19 1   
    39    20    21 1   
    40    21    23 1   
    41    22    23 2   
    42    24    52 1   
    43    28    29 ar  
    44    28    34 ar  
    45    29    30 ar  
    46    29    53 1   
    47    30    31 ar  
    48    30    54 1   
    49    31    32 ar  
    50    31    35 1   
    51    32    33 1   
    52    32    34 ar  
    53    33    55 1   
    54    33    56 1   
    55    33    57 1   
    56    34    58 1   
    57    35    36 2   
    58    35    37 1   
    59    37    38 1   
    60    37    59 1   
    61    38    39 1   
    62    38    40 1   
    63    38    60 1   
    64    39    40 1   
    65    39    61 1   
    66    39    62 1   
    67    40    63 1   
    68    40    64 1   
@<TRIPOS>SUBSTRUCTURE
     1 8RH         1 TEMP              0 ****  ****    0 ROOT
