@<TRIPOS>MOLECULE
8RI
   54    56     1     0     0
SMALL
No Charge or Current Charge


@<TRIPOS>ATOM
      1 C01        100.3590   139.6830   127.8810 c          1 8RI       0.601300
      2 C02        100.3000   138.8470   129.1090 ce         1 8RI      -0.293200
      3 C03        100.0550   139.3280   130.3650 cf         1 8RI      -0.088200
      4 C04        100.0110   138.5800   131.6430 ca         1 8RI      -0.057800
      5 C05        100.7750   137.3980   131.7570 ca         1 8RI      -0.090000
      6 C06        100.8020   136.6660   132.9530 ca         1 8RI      -0.114000
      7 C07        100.0660   137.1040   134.0600 ca         1 8RI      -0.088000
      8 C08         99.2910   138.2730   133.9720 ca         1 8RI      -0.041000
      9 C09         98.5510   138.6900   135.0960 ca         1 8RI      -0.099000
     10 C10         97.7550   139.8430   135.0320 ca         1 8RI      -0.107000
     11 C11         97.6910   140.5800   133.8410 ca         1 8RI      -0.105000
     12 C12         98.4280   140.1730   132.7150 ca         1 8RI      -0.100000
     13 C13         99.2500   139.0200   132.7650 ca         1 8RI      -0.016000
     14 C14        100.7260   139.5620   125.3940 c3         1 8RI       0.108000
     15 C15        101.5330   138.6420   124.4340 c3         1 8RI       0.170500
     16 C18        101.5590   139.2240   122.9900 c3         1 8RI      -0.052100
     17 C19        102.1700   140.6210   122.9230 ca         1 8RI      -0.121300
     18 C20        103.5570   140.7950   123.0900 ca         1 8RI      -0.066500
     19 C21        104.1220   142.0820   123.0360 ca         1 8RI      -0.171500
     20 C22        103.3020   143.1990   122.8140 ca         1 8RI       0.141100
     21 C23        101.9200   143.0320   122.6450 ca         1 8RI      -0.171500
     22 C24        101.3530   141.7470   122.6980 ca         1 8RI      -0.066500
     23 N01        100.6110   138.9790   126.7340 ns         1 8RI      -0.498900
     24 N02        101.1020   137.2050   124.5090 n3         1 8RI      -0.747600
     25 O01        100.1970   140.8940   127.8880 o          1 8RI      -0.619100
     26 O02        103.8420   144.4490   122.7600 oh         1 8RI      -0.532100
     27 H1         100.4540   137.7800   128.9670 ha         1 8RI       0.178000
     28 H2          99.9180   140.4070   130.4540 ha         1 8RI       0.201000
     29 H3         101.3740   137.0480   130.9200 ha         1 8RI       0.114000
     30 H4         101.4020   135.7610   133.0230 ha         1 8RI       0.115000
     31 H5         100.0960   136.5320   134.9850 ha         1 8RI       0.114000
     32 H6          98.5880   138.1170   136.0200 ha         1 8RI       0.112000
     33 H7          97.1840   140.1600   135.9010 ha         1 8RI       0.114000
     34 H8          97.0650   141.4680   133.7870 ha         1 8RI       0.115000
     35 H9          98.3300   140.7630   131.8100 ha         1 8RI       0.121000
     36 H10        101.2240   140.5380   125.4680 h1         1 8RI       0.053700
     37 H11         99.7160   139.7250   124.9950 h1         1 8RI       0.053700
     38 H12        102.5680   138.6870   124.8000 h1         1 8RI       0.064700
     39 H13         98.9940   137.5810   124.6060 h1         1 8RI       0.032367
     40 H14         99.5910   137.1170   122.9940 h1         1 8RI       0.032367
     41 H15         99.4330   135.8980   124.2750 h1         1 8RI       0.032367
     42 H16        103.0820   136.4340   124.2940 h1         1 8RI       0.032367
     43 H17        101.7950   135.2190   124.1630 h1         1 8RI       0.032367
     44 H18        102.0900   136.3400   122.8180 h1         1 8RI       0.032367
     45 H19        100.5410   139.2380   122.5860 hc         1 8RI       0.049700
     46 H20        102.1340   138.5590   122.3370 hc         1 8RI       0.049700
     47 H21        104.1990   139.9330   123.2630 ha         1 8RI       0.111500
     48 H22        105.1950   142.2010   123.1680 ha         1 8RI       0.122000
     49 H23        101.2860   143.8980   122.4720 ha         1 8RI       0.122000
     50 H24        100.2790   141.6290   122.5670 ha         1 8RI       0.111500
     51 H25        100.7290   137.9750   126.8120 hn         1 8RI       0.333500
     52 H27        104.8100   144.3750   122.8970 ho         1 8RI       0.464000
     53 C16         99.7080   136.9420   124.0720 c3         1 8RI       0.157100
     54 C17        102.0690   136.2530   123.9120 c3         1 8RI       0.157100
@<TRIPOS>BOND
     1     1     2 1   
     2     1    23 1   
     3     1    25 2   
     4     2     3 2   
     5     2    27 1   
     6     3     4 1   
     7     3    28 1   
     8     4     5 ar  
     9     4    13 ar  
    10     5     6 ar  
    11     5    29 1   
    12     6     7 ar  
    13     6    30 1   
    14     7     8 ar  
    15     7    31 1   
    16     8     9 ar  
    17     8    13 ar  
    18     9    10 ar  
    19     9    32 1   
    20    10    11 ar  
    21    10    33 1   
    22    11    12 ar  
    23    11    34 1   
    24    12    13 ar  
    25    12    35 1   
    26    14    15 1   
    27    14    23 1   
    28    14    36 1   
    29    14    37 1   
    30    15    16 1   
    31    15    24 1   
    32    15    38 1   
    33    16    17 1   
    34    16    45 1   
    35    16    46 1   
    36    17    18 ar  
    37    17    22 ar  
    38    18    19 ar  
    39    18    47 1   
    40    19    20 ar  
    41    19    48 1   
    42    20    21 ar  
    43    20    26 1   
    44    21    22 ar  
    45    21    49 1   
    46    22    50 1   
    47    23    51 1   
    48    24    53 1   
    49    24    54 1   
    50    26    52 1   
    51    39    53 1   
    52    40    53 1   
    53    41    53 1   
    54    42    54 1   
    55    43    54 1   
    56    44    54 1   
@<TRIPOS>SUBSTRUCTURE
     1 8RI         1 TEMP              0 ****  ****    0 ROOT
