@<TRIPOS>MOLECULE
8RI
   54    56     1     0     0
SMALL
bcc


@<TRIPOS>ATOM
      1 C01        100.4590   139.6550   127.9260 c          1 8RI       0.668300
      2 C02        100.4120   138.7940   129.1340 ce         1 8RI      -0.243200
      3 C03        100.1760   139.3160   130.3400 cf         1 8RI      -0.038200
      4 C04        100.1360   138.5620   131.5940 ca         1 8RI      -0.057800
      5 C05        100.9390   137.4570   131.7740 ca         1 8RI      -0.108000
      6 C06        100.9310   136.7290   132.9760 ca         1 8RI      -0.132000
      7 C07        100.1210   137.1140   134.0080 ca         1 8RI      -0.106000
      8 C08         99.2810   138.2430   133.8760 ca         1 8RI      -0.041000
      9 C09         98.4360   138.6460   134.9370 ca         1 8RI      -0.117000
     10 C10         97.6150   139.7310   134.8060 ca         1 8RI      -0.125000
     11 C11         97.5990   140.4560   133.5980 ca         1 8RI      -0.123000
     12 C12         98.4050   140.0880   132.5540 ca         1 8RI      -0.118000
     13 C13         99.2780   138.9790   132.6600 ca         1 8RI      -0.016000
     14 C14        100.7310   139.6000   125.4840 c3         1 8RI       0.108000
     15 C15        101.4920   138.7000   124.5100 c3         1 8RI       0.170500
     16 C18        101.4260   139.2710   123.0810 c3         1 8RI      -0.052100
     17 C19        102.0930   140.6130   122.9550 ca         1 8RI      -0.121300
     18 C20        103.4800   140.7230   122.9210 ca         1 8RI      -0.084500
     19 C21        104.1100   141.9560   122.8340 ca         1 8RI      -0.189500
     20 C22        103.3510   143.1230   122.7790 ca         1 8RI       0.141100
     21 C23        101.9620   143.0320   122.8090 ca         1 8RI      -0.189500
     22 C24        101.3520   141.7910   122.8950 ca         1 8RI      -0.084500
     23 N01        100.6970   138.9860   126.7870 ns         1 8RI      -0.565900
     24 N02        101.0430   137.3200   124.6370 n3         1 8RI      -0.747600
     25 O01        100.2940   140.8700   127.9680 o          1 8RI      -0.619100
     26 O02        103.9020   144.3520   122.6930 oh         1 8RI      -0.493100
     27 H1         100.5570   137.7270   129.0030 ha         1 8RI       0.128000
     28 H2         100.0040   140.3850   130.3960 ha         1 8RI       0.151000
     29 H3         101.6150   137.1540   130.9850 ha         1 8RI       0.132000
     30 H4         101.5800   135.8690   133.0810 ha         1 8RI       0.133000
     31 H5         100.1150   136.5610   134.9400 ha         1 8RI       0.132000
     32 H6          98.4500   138.0760   135.8570 ha         1 8RI       0.130000
     33 H7          96.9720   140.0320   135.6230 ha         1 8RI       0.132000
     34 H8          96.9420   141.3100   133.4940 ha         1 8RI       0.133000
     35 H9          98.3580   140.6560   131.6350 ha         1 8RI       0.139000
     36 H10        101.2320   140.5660   125.5430 h1         1 8RI       0.053700
     37 H11         99.7170   139.7970   125.1170 h1         1 8RI       0.053700
     38 H12        102.5420   138.7040   124.8230 h1         1 8RI       0.064700
     39 H13         98.9930   137.7700   124.5260 h1         1 8RI       0.032367
     40 H14         99.6430   137.0860   123.0310 h1         1 8RI       0.032367
     41 H15         99.3950   136.0620   124.4460 h1         1 8RI       0.032367
     42 H16        102.9750   136.5220   124.6140 h1         1 8RI       0.032367
     43 H17        101.6770   135.3470   124.4200 h1         1 8RI       0.032367
     44 H18        102.1410   136.3700   123.0590 h1         1 8RI       0.032367
     45 H19        100.3820   139.3530   122.7660 hc         1 8RI       0.049700
     46 H20        101.9030   138.5620   122.3990 hc         1 8RI       0.049700
     47 H21        104.0900   139.8270   122.9570 ha         1 8RI       0.129500
     48 H22        105.1930   142.0080   122.8050 ha         1 8RI       0.140000
     49 H23        101.3630   143.9330   122.7610 ha         1 8RI       0.140000
     50 H24        100.2690   141.7400   122.9150 ha         1 8RI       0.129500
     51 H25        100.7750   137.9780   126.7920 hn         1 8RI       0.333500
     52 H27        104.8630   144.2880   122.6690 ho         1 8RI       0.425000
     53 C16         99.7130   137.0550   124.1270 c3         1 8RI       0.157100
     54 C17        102.0030   136.3530   124.1500 c3         1 8RI       0.157100
@<TRIPOS>BOND
     1     1     2 1   
     2     1    23 1   
     3     1    25 2   
     4     2     3 2   
     5     2    27 1   
     6     3     4 1   
     7     3    28 1   
     8     4     5 ar  
     9     4    13 ar  
    10     5     6 ar  
    11     5    29 1   
    12     6     7 ar  
    13     6    30 1   
    14     7     8 ar  
    15     7    31 1   
    16     8     9 ar  
    17     8    13 ar  
    18     9    10 ar  
    19     9    32 1   
    20    10    11 ar  
    21    10    33 1   
    22    11    12 ar  
    23    11    34 1   
    24    12    13 ar  
    25    12    35 1   
    26    14    15 1   
    27    14    23 1   
    28    14    36 1   
    29    14    37 1   
    30    15    16 1   
    31    15    24 1   
    32    15    38 1   
    33    16    17 1   
    34    16    45 1   
    35    16    46 1   
    36    17    18 ar  
    37    17    22 ar  
    38    18    19 ar  
    39    18    47 1   
    40    19    20 ar  
    41    19    48 1   
    42    20    21 ar  
    43    20    26 1   
    44    21    22 ar  
    45    21    49 1   
    46    22    50 1   
    47    23    51 1   
    48    24    53 1   
    49    24    54 1   
    50    26    52 1   
    51    39    53 1   
    52    40    53 1   
    53    41    53 1   
    54    42    54 1   
    55    43    54 1   
    56    44    54 1   
@<TRIPOS>SUBSTRUCTURE
     1 8RI         1 TEMP              0 ****  ****    0 ROOT
