@<TRIPOS>MOLECULE
8RK
   26    27     1     0     0
SMALL
bcc


@<TRIPOS>ATOM
      1 C4          -0.9630     2.2890    -0.1300 c          1 8RK       0.820600
      2 C5          -2.0940     0.1530    -0.7240 c3         1 8RK       0.132000
      3 C6          -2.6870    -0.4850     0.5210 c3         1 8RK      -0.239400
      4 C7          -3.9250    -1.3580     0.2430 c          1 8RK       0.936600
      5 C8           0.3640     0.4990    -0.2420 ca         1 8RK       0.018600
      6 C10          2.3140    -0.8110    -0.1260 ca         1 8RK       0.032400
      7 CL           3.0790    -2.3600    -0.2990 cl         1 8RK      -0.127400
      8 C1           3.0910     0.2840     0.2590 ca         1 8RK      -0.091300
      9 C            4.5600     0.1540     0.5270 c3         1 8RK      -0.035800
     10 C9           0.9470    -0.7410    -0.3830 ca         1 8RK      -0.109000
     11 C3           1.1160     1.5990     0.1370 ca         1 8RK       0.042100
     12 C2           2.4610     1.5270     0.3920 ca         1 8RK      -0.101000
     13 N           -0.9250     0.9610    -0.4180 n          1 8RK      -0.363000
     14 O1          -1.8980     3.0460    -0.1450 o          1 8RK      -0.588500
     15 O            0.3000     2.6870     0.2000 os         1 8RK      -0.303200
     16 O3          -4.2910    -1.4630    -0.9440 o          1 8RK      -0.835800
     17 O2          -4.4550    -1.8860     1.2390 o          1 8RK      -0.835800
     18 H1          -1.7920    -0.6010    -1.4490 h1         1 8RK       0.069700
     19 H2          -2.8170     0.7960    -1.2220 h1         1 8RK       0.069700
     20 H3          -1.9300    -1.0980     1.0230 hc         1 8RK       0.032200
     21 H4          -2.9570     0.2950     1.2400 hc         1 8RK       0.032200
     22 H5           5.1000    -0.1910    -0.3560 hc         1 8RK       0.041700
     23 H6           4.9830     1.1130     0.8230 hc         1 8RK       0.041700
     24 H7           4.7600    -0.5610     1.3260 hc         1 8RK       0.041700
     25 H8           0.3860    -1.6170    -0.6770 ha         1 8RK       0.174000
     26 H9           3.0260     2.4010     0.6880 ha         1 8RK       0.145000
@<TRIPOS>BOND
     1     1    13 1   
     2     1    14 2   
     3     1    15 1   
     4     2     3 1   
     5     2    13 1   
     6     2    18 1   
     7     2    19 1   
     8     3     4 1   
     9     3    20 1   
    10     3    21 1   
    11     4    16 1   
    12     4    17 1   
    13     5    10 ar  
    14     5    11 ar  
    15     5    13 1   
    16     6     7 1   
    17     6     8 ar  
    18     6    10 ar  
    19     8     9 1   
    20     8    12 ar  
    21     9    22 1   
    22     9    23 1   
    23     9    24 1   
    24    10    25 1   
    25    11    12 ar  
    26    11    15 1   
    27    12    26 1   
@<TRIPOS>SUBSTRUCTURE
     1 8RK         1 TEMP              0 ****  ****    0 ROOT
