@<TRIPOS>MOLECULE
8RK
   26    27     1     0     0
SMALL
No Charge or Current Charge


@<TRIPOS>ATOM
      1 C4          -0.9940     2.4070    -0.1260 c          1 8RK       0.678100
      2 C5          -2.1590     0.2090    -0.6450 c3         1 8RK       0.132000
      3 C6          -2.5970    -0.5980     0.5930 c3         1 8RK      -0.239400
      4 C7          -3.8460    -1.4010     0.2320 c          1 8RK       0.726000
      5 C8           0.3260     0.5150    -0.1230 ca         1 8RK       0.018600
      6 C10          2.3120    -0.8380    -0.2070 ca         1 8RK       0.124000
      7 Cl           3.0780    -2.3900    -0.5470 cl         1 8RK      -0.219000
      8 C1           3.0820     0.2660     0.2660 ca         1 8RK      -0.091300
      9 C            4.5820     0.1300     0.5010 c3         1 8RK      -0.035800
     10 C9           0.9260    -0.7080    -0.4400 ca         1 8RK      -0.091000
     11 C3           1.0770     1.6020     0.2570 ca         1 8RK       0.042100
     12 C2           2.4540     1.5180     0.4790 ca         1 8RK      -0.083000
     13 N           -0.9590     1.0280    -0.4010 n          1 8RK      -0.296000
     14 O1          -1.9610     3.1560    -0.1590 o          1 8RK      -0.513000
     15 O            0.2840     2.7190     0.2870 os         1 8RK      -0.303200
     16 O3          -3.6940    -2.5130    -0.2470 o          1 8RK      -0.730500
     17 O2          -4.9340    -0.8670     0.3820 o          1 8RK      -0.730500
     18 H1          -1.9460    -0.4800    -1.4730 h1         1 8RK       0.069700
     19 H2          -2.9810     0.8620    -0.9660 h1         1 8RK       0.069700
     20 H3          -1.7630    -1.2670     0.8370 hc         1 8RK       0.032200
     21 H4          -2.8190     0.1410     1.3720 hc         1 8RK       0.032200
     22 H5           5.1050    -0.1210    -0.4290 hc         1 8RK       0.041700
     23 H6           5.0200     1.0590     0.8840 hc         1 8RK       0.041700
     24 H7           4.7960    -0.6580     1.2320 hc         1 8RK       0.041700
     25 H8           0.3460    -1.5350    -0.8410 ha         1 8RK       0.156000
     26 H9           3.0190     2.3950     0.7850 ha         1 8RK       0.127000
@<TRIPOS>BOND
     1     1    13 1   
     2     1    14 2   
     3     1    15 1   
     4     2     3 1   
     5     2    13 1   
     6     2    18 1   
     7     2    19 1   
     8     3     4 1   
     9     3    20 1   
    10     3    21 1   
    11     4    16 1   
    12     4    17 1   
    13     5    10 ar  
    14     5    11 ar  
    15     5    13 1   
    16     6     7 1   
    17     6     8 ar  
    18     6    10 ar  
    19     8     9 1   
    20     8    12 ar  
    21     9    22 1   
    22     9    23 1   
    23     9    24 1   
    24    10    25 1   
    25    11    12 ar  
    26    11    15 1   
    27    12    26 1   
@<TRIPOS>SUBSTRUCTURE
     1 8RK         1 TEMP              0 ****  ****    0 ROOT
