@<TRIPOS>MOLECULE
8RM
   24    25     1     0     0
SMALL
No Charge or Current Charge


@<TRIPOS>ATOM
      1 N1           3.3810    -0.5290     0.0050 ns         1 8RM      -0.501900
      2 C4          -0.0320     1.0230     0.0020 ca         1 8RM       0.001000
      3 C5          -1.3720     0.5990    -0.0110 ca         1 8RM      -0.095000
      4 C6          -2.4150     1.5460    -0.0060 ca         1 8RM      -0.082000
      5 C7          -3.7520     1.1180    -0.0190 ca         1 8RM      -0.109000
      6 C8          -4.0480    -0.2540    -0.0360 ca         1 8RM      -0.093000
      7 C10         -1.6580    -0.7880    -0.0280 ca         1 8RM       0.279000
      8 C1           4.8270    -0.2940     0.0160 c3         1 8RM       0.093300
      9 C2           2.4330     0.4720     0.0100 c          1 8RM       0.615700
     10 C3           0.9910     0.0530    -0.0030 ca         1 8RM      -0.215600
     11 C9          -3.0050    -1.1980    -0.0400 ca         1 8RM      -0.087000
     12 N2          -0.6730    -1.7150    -0.0320 nb         1 8RM      -0.663000
     13 C11          0.6140    -1.3010    -0.0200 ca         1 8RM       0.369900
     14 O1           2.7610     1.6500     0.0260 o          1 8RM      -0.601100
     15 H1           3.0500    -1.4860    -0.0080 hn         1 8RM       0.317500
     16 H3          -2.1920     2.6110     0.0070 ha         1 8RM       0.120000
     17 H4          -4.5580     1.8490    -0.0150 ha         1 8RM       0.118000
     18 H5          -5.0830    -0.5880    -0.0460 ha         1 8RM       0.118000
     19 H6           5.3550    -1.2560     0.0080 h1         1 8RM       0.042033
     20 H7           5.1150     0.2840    -0.8720 h1         1 8RM       0.042033
     21 H8           5.1040     0.2630     0.9200 h1         1 8RM       0.042033
     22 H9          -3.2400    -2.2580    -0.0540 ha         1 8RM       0.133000
     23 H10          1.3550    -2.0990    -0.0250 h4         1 8RM       0.016100
     24 H2           0.2060     2.0850     0.0150 ha         1 8RM       0.142000
@<TRIPOS>BOND
     1     1     8 1   
     2     1     9 1   
     3     1    15 1   
     4     2     3 ar  
     5     2    10 ar  
     6     2    24 1   
     7     3     4 ar  
     8     3     7 ar  
     9     4     5 ar  
    10     4    16 1   
    11     5     6 ar  
    12     5    17 1   
    13     6    11 ar  
    14     6    18 1   
    15     7    11 ar  
    16     7    12 ar  
    17     8    19 1   
    18     8    20 1   
    19     8    21 1   
    20     9    10 1   
    21     9    14 2   
    22    10    13 ar  
    23    11    22 1   
    24    12    13 ar  
    25    13    23 1   
@<TRIPOS>SUBSTRUCTURE
     1 8RM         1 TEMP              0 ****  ****    0 ROOT
