@<TRIPOS>MOLECULE
8RM
   24    25     1     0     0
SMALL
bcc


@<TRIPOS>ATOM
      1 N1           3.3220    -0.5060    -0.1420 ns         1 8RM      -0.568900
      2 C4           0.0220     0.9680     0.0560 ca         1 8RM      -0.017000
      3 C5          -1.3350     0.5980    -0.0010 ca         1 8RM      -0.160300
      4 C6          -2.3790     1.5420    -0.1380 ca         1 8RM      -0.100000
      5 C7          -3.6800     1.1230    -0.1900 ca         1 8RM      -0.127000
      6 C8          -3.9900    -0.2520    -0.1040 ca         1 8RM      -0.111000
      7 C10         -1.6460    -0.7810     0.0860 ca         1 8RM       0.409600
      8 C1           4.7400    -0.2310    -0.1420 c3         1 8RM       0.093300
      9 C2           2.4210     0.4130     0.2280 c          1 8RM       0.682700
     10 C3           0.9860     0.0010     0.1690 ca         1 8RM      -0.280900
     11 C9          -2.9990    -1.1860     0.0320 ca         1 8RM      -0.170300
     12 N2          -0.6850    -1.7260     0.2250 nb         1 8RM      -0.663000
     13 C11          0.5620    -1.3470     0.2610 ca         1 8RM       0.435200
     14 O1           2.7380     1.5380     0.5940 o          1 8RM      -0.601100
     15 H1           3.0160    -1.3670    -0.5620 hn         1 8RM       0.317500
     16 H3          -2.1350     2.5950    -0.2030 ha         1 8RM       0.138000
     17 H4          -4.4790     1.8450    -0.2950 ha         1 8RM       0.136000
     18 H5          -5.0250    -0.5650    -0.1460 ha         1 8RM       0.136000
     19 H6           5.2640    -1.1390    -0.4260 h1         1 8RM       0.042033
     20 H7           5.0030     0.5560    -0.8510 h1         1 8RM       0.042033
     21 H8           5.0840     0.0690     0.8470 h1         1 8RM       0.042033
     22 H9          -3.2270    -2.2410     0.1010 ha         1 8RM       0.151000
     23 H10          1.2900    -2.1400     0.3960 h4         1 8RM       0.016100
     24 H2           0.2940     2.0150    -0.0000 ha         1 8RM       0.160000
@<TRIPOS>BOND
     1     1     8 1   
     2     1     9 1   
     3     1    15 1   
     4     2     3 ar  
     5     2    10 ar  
     6     2    24 1   
     7     3     4 ar  
     8     3     7 ar  
     9     4     5 ar  
    10     4    16 1   
    11     5     6 ar  
    12     5    17 1   
    13     6    11 ar  
    14     6    18 1   
    15     7    11 ar  
    16     7    12 ar  
    17     8    19 1   
    18     8    20 1   
    19     8    21 1   
    20     9    10 1   
    21     9    14 2   
    22    10    13 ar  
    23    11    22 1   
    24    12    13 ar  
    25    13    23 1   
@<TRIPOS>SUBSTRUCTURE
     1 8RM         1 TEMP              0 ****  ****    0 ROOT
