@<TRIPOS>MOLECULE
8RN
   54    57     1     0     0
SMALL
No Charge or Current Charge


@<TRIPOS>ATOM
      1 N            3.7140    -0.8260    -1.2950 nc         1 8RN      -0.584100
      2 C            4.3430     1.2830    -0.3720 cd         1 8RN      -0.376600
      3 O            2.6960     2.9430    -0.0660 o          1 8RN      -0.515000
      4 O2          -3.5890    -2.0530     1.1170 o          1 8RN      -0.606100
      5 C13         -5.1480    -0.2910     0.5740 c3         1 8RN      -0.150400
      6 C14         -6.3330    -1.2950     0.5470 c3         1 8RN      -0.002400
      7 C21         -6.7520    -1.7460     1.9670 c3         1 8RN      -0.085100
      8 C15         -7.5270    -0.7070    -0.2100 ca         1 8RN      -0.083300
      9 C20         -8.0090    -1.3410    -1.3740 ca         1 8RN      -0.107500
     10 C19         -9.1030    -0.8060    -2.0760 ca         1 8RN      -0.110000
     11 C18         -9.7270     0.3670    -1.6210 ca         1 8RN      -0.111000
     12 C17         -9.2540     1.0060    -0.4630 ca         1 8RN      -0.110000
     13 C16         -8.1600     0.4720     0.2400 ca         1 8RN      -0.107500
     14 N2          -2.7160     0.0630     1.2500 n          1 8RN      -0.413800
     15 C9          -2.7180     1.4900     0.8250 c6         1 8RN       0.100000
     16 C8          -1.7090     1.7120    -0.3280 c6         1 8RN      -0.115900
     17 C10         -1.3760    -0.3900     1.7040 c6         1 8RN       0.100000
     18 C11         -0.3280    -0.2180     0.5770 c6         1 8RN      -0.115900
     19 C7          -0.2740     1.2460     0.0510 c6         1 8RN       0.174000
     20 O1           0.2300     2.0990     1.0870 oh         1 8RN      -0.644000
     21 C6           0.6710     1.3720    -1.1910 c3         1 8RN       0.059000
     22 N1           2.0750     0.9270    -0.9830 n          1 8RN      -0.329300
     23 C2           2.4710    -0.3440    -1.3820 cd         1 8RN       0.494800
     24 C3           2.9990     1.8230    -0.4510 c          1 8RN       0.602600
     25 S            5.7460     2.1460     0.2590 ss         1 8RN       0.333000
     26 C4           6.7540     0.7210    -0.0580 cd         1 8RN      -0.200000
     27 C5           6.0260    -0.3090    -0.6030 cc         1 8RN      -0.042900
     28 C1           4.6550     0.0250    -0.7750 cc         1 8RN       0.193400
     29 Br           6.7820    -1.9780    -1.0640 br         1 8RN      -0.034100
     30 H1          -5.3750     0.5820     1.1960 hc         1 8RN       0.060700
     31 H2          -5.0130     0.1710    -0.4110 hc         1 8RN       0.060700
     32 H3          -5.9930    -2.1900     0.0120 hc         1 8RN       0.071700
     33 H4          -5.9280    -2.2540     2.4800 hc         1 8RN       0.040367
     34 H5          -7.0590    -0.8900     2.5800 hc         1 8RN       0.040367
     35 H6          -7.5950    -2.4450     1.9110 hc         1 8RN       0.040367
     36 H7          -7.5370    -2.2500    -1.7390 ha         1 8RN       0.111000
     37 H8          -9.4680    -1.3020    -2.9730 ha         1 8RN       0.112000
     38 H9         -10.5730     0.7810    -2.1650 ha         1 8RN       0.112000
     39 H10         -9.7360     1.9150    -0.1090 ha         1 8RN       0.112000
     40 H11         -7.8060     0.9780     1.1350 ha         1 8RN       0.111000
     41 H12         -3.7110     1.8270     0.5010 h1         1 8RN       0.064200
     42 H13         -2.4380     2.1170     1.6840 h1         1 8RN       0.064200
     43 H14         -2.0570     1.1620    -1.2130 hc         1 8RN       0.057950
     44 H15         -1.7010     2.7750    -0.6080 hc         1 8RN       0.057950
     45 H16         -1.0760     0.2030     2.5800 h1         1 8RN       0.064200
     46 H17         -1.4010    -1.4410     2.0260 h1         1 8RN       0.064200
     47 H18          0.6570    -0.5280     0.9520 hc         1 8RN       0.057950
     48 H19         -0.5770    -0.9000    -0.2470 hc         1 8RN       0.057950
     49 H20          1.0560     2.5120     0.7400 ho         1 8RN       0.449000
     50 H21          0.2360     0.7820    -2.0090 h1         1 8RN       0.076200
     51 H22          0.6680     2.4160    -1.5350 h1         1 8RN       0.076200
     52 H23          1.6950    -0.9790    -1.7930 h5         1 8RN       0.052800
     53 H24          7.8090     0.7420     0.1800 h4         1 8RN       0.166000
     54 C12         -3.7710    -0.8480     0.9920 c          1 8RN       0.605100
@<TRIPOS>BOND
     1     1    23 2   
     2     1    28 1   
     3     2    24 1   
     4     2    25 1   
     5     2    28 2   
     6     3    24 2   
     7     4    54 2   
     8     5     6 1   
     9     5    30 1   
    10     5    31 1   
    11     5    54 1   
    12     6     7 1   
    13     6     8 1   
    14     6    32 1   
    15     7    33 1   
    16     7    34 1   
    17     7    35 1   
    18     8     9 ar  
    19     8    13 ar  
    20     9    10 ar  
    21     9    36 1   
    22    10    11 ar  
    23    10    37 1   
    24    11    12 ar  
    25    11    38 1   
    26    12    13 ar  
    27    12    39 1   
    28    13    40 1   
    29    14    15 1   
    30    14    17 1   
    31    14    54 1   
    32    15    16 1   
    33    15    41 1   
    34    15    42 1   
    35    16    19 1   
    36    16    43 1   
    37    16    44 1   
    38    17    18 1   
    39    17    45 1   
    40    17    46 1   
    41    18    19 1   
    42    18    47 1   
    43    18    48 1   
    44    19    20 1   
    45    19    21 1   
    46    20    49 1   
    47    21    22 1   
    48    21    50 1   
    49    21    51 1   
    50    22    23 1   
    51    22    24 1   
    52    23    52 1   
    53    25    26 1   
    54    26    27 2   
    55    26    53 1   
    56    27    28 1   
    57    27    29 1   
@<TRIPOS>SUBSTRUCTURE
     1 8RN         1 TEMP              0 ****  ****    0 ROOT
