@<TRIPOS>MOLECULE
8RN
   54    57     1     0     0
SMALL
abcg2


@<TRIPOS>ATOM
      1 N            3.5700    -0.7860    -1.0500 nc         1 8RN      -0.584100
      2 C            4.1730     1.4840    -0.5540 cd         1 8RN      -0.376600
      3 O            2.5080     3.1430    -0.6910 o          1 8RN      -0.515000
      4 O2          -3.6300    -2.1000     1.1750 o          1 8RN      -0.606100
      5 C13         -5.0440    -0.2670     0.5630 c3         1 8RN      -0.150400
      6 C14         -6.2260    -1.2410     0.5500 c3         1 8RN      -0.002400
      7 C21         -6.6610    -1.6410     1.9610 c3         1 8RN      -0.085100
      8 C15         -7.3820    -0.6300    -0.2090 ca         1 8RN      -0.083300
      9 C20         -7.8850    -1.2410    -1.3550 ca         1 8RN      -0.107500
     10 C19         -8.9500    -0.6870    -2.0560 ca         1 8RN      -0.110000
     11 C18         -9.5300     0.4960    -1.6200 ca         1 8RN      -0.111000
     12 C17         -9.0380     1.1170    -0.4780 ca         1 8RN      -0.110000
     13 C16         -7.9770     0.5580     0.2190 ca         1 8RN      -0.107500
     14 N2          -2.6960    -0.0500     1.2320 n          1 8RN      -0.413800
     15 C9          -2.6690     1.3590     0.8820 c6         1 8RN       0.100000
     16 C8          -1.7020     1.6050    -0.2710 c6         1 8RN      -0.115900
     17 C10         -1.3920    -0.5630     1.6090 c6         1 8RN       0.100000
     18 C11         -0.3950    -0.3850     0.4700 c6         1 8RN      -0.115900
     19 C7          -0.2980     1.0800     0.0310 c6         1 8RN       0.174000
     20 O1           0.2240     1.8770     1.0720 oh         1 8RN      -0.644000
     21 C6           0.5400     1.2460    -1.2500 c3         1 8RN       0.059000
     22 N1           1.9560     0.9410    -1.0590 n          1 8RN      -0.329300
     23 C2           2.3700    -0.3480    -1.2110 cd         1 8RN       0.494800
     24 C3           2.8440     1.9780    -0.7550 c          1 8RN       0.602600
     25 S            5.5290     2.4450    -0.1390 ss         1 8RN       0.333000
     26 C4           6.5460     1.0610    -0.1460 cd         1 8RN      -0.200000
     27 C5           5.8750    -0.0770    -0.4570 cc         1 8RN      -0.042900
     28 C1           4.4880     0.1510    -0.7000 cc         1 8RN       0.193400
     29 BR           6.6450    -1.7690    -0.5660 br         1 8RN      -0.034100
     30 H1          -5.2910     0.5930     1.1930 hc         1 8RN       0.060700
     31 H2          -4.8980     0.1350    -0.4450 hc         1 8RN       0.060700
     32 H3          -5.9210    -2.1440     0.0160 hc         1 8RN       0.071700
     33 H4          -5.8460    -2.1120     2.5090 hc         1 8RN       0.040367
     34 H5          -6.9930    -0.7740     2.5350 hc         1 8RN       0.040367
     35 H6          -7.4910    -2.3470     1.9230 hc         1 8RN       0.040367
     36 H7          -7.4390    -2.1660    -1.7030 ha         1 8RN       0.111000
     37 H8          -9.3250    -1.1820    -2.9420 ha         1 8RN       0.112000
     38 H9         -10.3580     0.9320    -2.1650 ha         1 8RN       0.112000
     39 H10         -9.4820     2.0410    -0.1300 ha         1 8RN       0.112000
     40 H11         -7.6120     1.0590     1.1080 ha         1 8RN       0.111000
     41 H12         -3.6570     1.7110     0.6050 h1         1 8RN       0.064200
     42 H13         -2.3640     1.9340     1.7610 h1         1 8RN       0.064200
     43 H14         -2.0840     1.1130    -1.1700 hc         1 8RN       0.057950
     44 H15         -1.6590     2.6760    -0.4860 hc         1 8RN       0.057950
     45 H16         -1.0520    -0.0280     2.5000 h1         1 8RN       0.064200
     46 H17         -1.4740    -1.6120     1.8750 h1         1 8RN       0.064200
     47 H18          0.5800    -0.7630     0.7940 hc         1 8RN       0.057950
     48 H19         -0.7090    -1.0040    -0.3750 hc         1 8RN       0.057950
     49 H20          0.9450     1.4110     1.5080 ho         1 8RN       0.449000
     50 H21          0.1580     0.5960    -2.0370 h1         1 8RN       0.076200
     51 H22          0.4630     2.2710    -1.6090 h1         1 8RN       0.076200
     52 H23          1.5960    -1.0440    -1.5070 h5         1 8RN       0.052800
     53 H24          7.5960     1.1650     0.0820 h4         1 8RN       0.166000
     54 C12         -3.7350    -0.8900     1.0160 c          1 8RN       0.605100
@<TRIPOS>BOND
     1     1    23 2   
     2     1    28 1   
     3     2    24 1   
     4     2    25 1   
     5     2    28 2   
     6     3    24 2   
     7     4    54 2   
     8     5     6 1   
     9     5    30 1   
    10     5    31 1   
    11     5    54 1   
    12     6     7 1   
    13     6     8 1   
    14     6    32 1   
    15     7    33 1   
    16     7    34 1   
    17     7    35 1   
    18     8     9 ar  
    19     8    13 ar  
    20     9    10 ar  
    21     9    36 1   
    22    10    11 ar  
    23    10    37 1   
    24    11    12 ar  
    25    11    38 1   
    26    12    13 ar  
    27    12    39 1   
    28    13    40 1   
    29    14    15 1   
    30    14    17 1   
    31    14    54 1   
    32    15    16 1   
    33    15    41 1   
    34    15    42 1   
    35    16    19 1   
    36    16    43 1   
    37    16    44 1   
    38    17    18 1   
    39    17    45 1   
    40    17    46 1   
    41    18    19 1   
    42    18    47 1   
    43    18    48 1   
    44    19    20 1   
    45    19    21 1   
    46    20    49 1   
    47    21    22 1   
    48    21    50 1   
    49    21    51 1   
    50    22    23 1   
    51    22    24 1   
    52    23    52 1   
    53    25    26 1   
    54    26    27 2   
    55    26    53 1   
    56    27    28 1   
    57    27    29 1   
@<TRIPOS>SUBSTRUCTURE
     1 8RN         1 TEMP              0 ****  ****    0 ROOT
