@<TRIPOS>MOLECULE
8RP
   34    35     1     0     0
SMALL
bcc


@<TRIPOS>ATOM
      1 N1          -2.6970    -0.0220    -0.4610 n          1 8RP      -0.478800
      2 C4          -1.2380     1.9140    -0.3560 c6         1 8RP      -0.051100
      3 C5          -0.0900     0.9480    -0.2310 ca         1 8RP      -0.058300
      4 C6           1.2000     1.4260     0.0350 ca         1 8RP      -0.188000
      5 C7           2.2790     0.5700     0.1420 ca         1 8RP       0.119100
      6 C8           2.0780    -0.8170    -0.0260 ca         1 8RP       0.113100
      7 C10         -0.2850    -0.4130    -0.3800 ca         1 8RP      -0.106300
      8 C13          3.8000     2.3210     0.6070 c3         1 8RP       0.121700
      9 C1          -3.9530    -1.5600     0.9720 c3         1 8RP      -0.177100
     10 C2          -3.7750    -0.2020     0.3350 c          1 8RP       0.677100
     11 C3          -2.4160     1.2660    -1.0650 c6         1 8RP       0.095000
     12 C9           0.8040    -1.2860    -0.2820 ca         1 8RP      -0.185000
     13 C11         -1.6480    -0.9940    -0.6730 c6         1 8RP       0.155300
     14 O1           3.1790    -1.5840     0.0880 os         1 8RP      -0.296900
     15 C12          3.0390    -2.9780    -0.0910 c3         1 8RP       0.122700
     16 O2           3.5460     0.9480     0.3960 os         1 8RP      -0.296900
     17 O3          -4.5870     0.6940     0.5340 o          1 8RP      -0.606100
     18 H1          -1.5540     2.2570     0.6350 hc         1 8RP       0.059200
     19 H2          -0.9230     2.8050    -0.9050 hc         1 8RP       0.059200
     20 H3           1.3360     2.4940     0.1490 ha         1 8RP       0.138000
     21 H4           4.8630     2.4110     0.8150 h1         1 8RP       0.040367
     22 H5           3.5610     2.9220    -0.2750 h1         1 8RP       0.040367
     23 H6           3.2390     2.7120     1.4600 h1         1 8RP       0.040367
     24 H7          -3.9480    -2.3680     0.2400 hc         1 8RP       0.060367
     25 H8          -3.1620    -1.7670     1.6940 hc         1 8RP       0.060367
     26 H9          -4.9040    -1.5800     1.4980 hc         1 8RP       0.060367
     27 H10         -2.1770     1.1070    -2.1210 h1         1 8RP       0.063200
     28 H11         -3.2990     1.8960    -1.0190 h1         1 8RP       0.063200
     29 H12          0.6290    -2.3480    -0.4070 ha         1 8RP       0.134000
     30 H13         -1.8090    -1.8680    -0.0470 h1         1 8RP       0.052700
     31 H14         -1.6800    -1.3470    -1.7110 h1         1 8RP       0.052700
     32 H15          2.3740    -3.4220     0.6550 h1         1 8RP       0.039367
     33 H16          2.6640    -3.2260    -1.0870 h1         1 8RP       0.039367
     34 H17          4.0310    -3.4060     0.0270 h1         1 8RP       0.039367
@<TRIPOS>BOND
     1     1    10 1   
     2     1    11 1   
     3     1    13 1   
     4     2     3 1   
     5     2    11 1   
     6     2    18 1   
     7     2    19 1   
     8     3     4 ar  
     9     3     7 ar  
    10     4     5 ar  
    11     4    20 1   
    12     5     6 ar  
    13     5    16 1   
    14     6    12 ar  
    15     6    14 1   
    16     7    12 ar  
    17     7    13 1   
    18     8    16 1   
    19     8    21 1   
    20     8    22 1   
    21     8    23 1   
    22     9    10 1   
    23     9    24 1   
    24     9    25 1   
    25     9    26 1   
    26    10    17 2   
    27    11    27 1   
    28    11    28 1   
    29    12    29 1   
    30    13    30 1   
    31    13    31 1   
    32    14    15 1   
    33    15    32 1   
    34    15    33 1   
    35    15    34 1   
@<TRIPOS>SUBSTRUCTURE
     1 8RP         1 TEMP              0 ****  ****    0 ROOT
