@<TRIPOS>MOLECULE
8RP
   34    35     1     0     0
SMALL
No Charge or Current Charge


@<TRIPOS>ATOM
      1 N1          -2.7480     0.0470    -0.0710 n          1 8RP      -0.411800
      2 C4          -1.1520     1.9990     0.3880 c6         1 8RP      -0.051100
      3 C5           0.0220     1.0460     0.2490 ca         1 8RP      -0.058300
      4 C6           1.3350     1.5190     0.0840 ca         1 8RP      -0.170000
      5 C7           2.4060     0.6060    -0.0530 ca         1 8RP       0.119100
      6 C8           2.1470    -0.7850    -0.0180 ca         1 8RP       0.113100
      7 C10         -0.2390    -0.3310     0.2870 ca         1 8RP      -0.106300
      8 C13          4.0700     2.4280    -0.2680 c3         1 8RP       0.144900
      9 C1          -4.3730    -1.9060    -0.1140 c3         1 8RP      -0.177100
     10 C2          -3.9900    -0.4740    -0.4980 c          1 8RP       0.610100
     11 C3          -2.3880     1.4660    -0.3710 c6         1 8RP       0.095000
     12 C9           0.8210    -1.2470     0.1550 ca         1 8RP      -0.167000
     13 C11         -1.6750    -0.8260     0.5010 c6         1 8RP       0.155300
     14 O1           3.2130    -1.6610    -0.1520 os         1 8RP      -0.320100
     15 C12          3.0470    -3.0900    -0.1310 c3         1 8RP       0.145900
     16 O2           3.7130     1.0350    -0.2200 os         1 8RP      -0.320100
     17 O3          -4.7750     0.2200    -1.1320 o          1 8RP      -0.606100
     18 H1          -1.3980     2.1180     1.4520 hc         1 8RP       0.059200
     19 H2          -0.8930     2.9980     0.0130 hc         1 8RP       0.059200
     20 H3           1.5050     2.5920     0.0610 ha         1 8RP       0.120000
     21 H4           5.1530     2.5370    -0.4060 h1         1 8RP       0.040367
     22 H5           3.5680     2.9310    -1.1040 h1         1 8RP       0.040367
     23 H6           3.7940     2.9330     0.6670 h1         1 8RP       0.040367
     24 H7          -3.7190    -2.6030    -0.6480 hc         1 8RP       0.060367
     25 H8          -4.1260    -2.0890     0.9380 hc         1 8RP       0.060367
     26 H9          -5.4240    -2.1280    -0.3320 hc         1 8RP       0.060367
     27 H10         -2.1990     1.5510    -1.4510 h1         1 8RP       0.063200
     28 H11         -3.2460     2.1160    -0.1430 h1         1 8RP       0.063200
     29 H12          0.5990    -2.3100     0.1930 ha         1 8RP       0.116000
     30 H13         -1.8500    -0.9330     1.5810 h1         1 8RP       0.052700
     31 H14         -1.7460    -1.8300     0.0630 h1         1 8RP       0.052700
     32 H15          2.6180    -3.4180     0.8240 h1         1 8RP       0.039367
     33 H16          2.3900    -3.4190    -0.9460 h1         1 8RP       0.039367
     34 H17          4.0170    -3.5870    -0.2550 h1         1 8RP       0.039367
@<TRIPOS>BOND
     1     1    10 1   
     2     1    11 1   
     3     1    13 1   
     4     2     3 1   
     5     2    11 1   
     6     2    18 1   
     7     2    19 1   
     8     3     4 ar  
     9     3     7 ar  
    10     4     5 ar  
    11     4    20 1   
    12     5     6 ar  
    13     5    16 1   
    14     6    12 ar  
    15     6    14 1   
    16     7    12 ar  
    17     7    13 1   
    18     8    16 1   
    19     8    21 1   
    20     8    22 1   
    21     8    23 1   
    22     9    10 1   
    23     9    24 1   
    24     9    25 1   
    25     9    26 1   
    26    10    17 2   
    27    11    27 1   
    28    11    28 1   
    29    12    29 1   
    30    13    30 1   
    31    13    31 1   
    32    14    15 1   
    33    15    32 1   
    34    15    33 1   
    35    15    34 1   
@<TRIPOS>SUBSTRUCTURE
     1 8RP         1 TEMP              0 ****  ****    0 ROOT
