@<TRIPOS>MOLECULE
8RQ
   90    93     1     0     0
SMALL
No Charge or Current Charge


@<TRIPOS>ATOM
      1 CBJ          2.4020    -3.2690     1.5490 c6         1 8RQ      -0.071400
      2 CBK          3.0560    -4.5890     2.0240 c6         1 8RQ      -0.072900
      3 CBL          3.2130    -5.5920     0.8560 c6         1 8RQ      -0.075400
      4 CBM          4.0060    -4.9630    -0.3150 c6         1 8RQ      -0.072900
      5 CBN          3.3490    -3.6440    -0.7920 c6         1 8RQ      -0.071400
      6 CBO          3.1980    -2.6270     0.3750 c6         1 8RQ      -0.079700
      7 CBP          2.5410    -1.3030    -0.1240 c3         1 8RQ       0.233800
      8 NBQ          2.3720    -0.2390     0.8990 n3         1 8RQ      -0.799500
      9 CBA          3.6100     0.2030     1.5890 c3         1 8RQ       0.232800
     10 CBB          4.7180     0.7900     0.6830 c3         1 8RQ      -0.099400
     11 CBC          5.9850     1.1890     1.4710 c3         1 8RQ      -0.001200
     12 CBD          7.0970     1.7330     0.5610 ce         1 8RQ      -0.317800
     13 CBE          7.2220     3.0640     0.3190 c2         1 8RQ       0.144900
     14 CBF          6.3180     4.1470     0.8830 c3         1 8RQ      -0.059900
     15 OBG          8.1860     3.5720    -0.4670 oh         1 8RQ      -0.540100
     16 CBH          8.0260     0.7470    -0.0410 ce         1 8RQ       0.481500
     17 NBI          7.8580    -0.5250     0.1310 n2         1 8RQ      -0.598900
     18 CBR          8.7530    -1.4820    -0.5270 c3         1 8RQ       0.091100
     19 SAG          1.3160     1.0150     0.4360 sy         1 8RQ       1.191600
     20 OAI          1.0690     1.7960     1.6540 o          1 8RQ      -0.543000
     21 OAJ          1.8570     1.6270    -0.7830 o          1 8RQ      -0.543000
     22 CAF         -0.2050     0.1190     0.0720 ca         1 8RQ      -0.231500
     23 CAE         -0.8600    -0.5860     1.1020 ca         1 8RQ      -0.039000
     24 CAD         -2.0530    -1.2810     0.8360 ca         1 8RQ      -0.039000
     25 CAA         -0.7390     0.1080    -1.2330 ca         1 8RQ      -0.039000
     26 CAB         -1.9300    -0.5880    -1.4990 ca         1 8RQ      -0.039000
     27 CAC         -2.6010    -1.2740    -0.4650 ca         1 8RQ      -0.237500
     28 SAH         -4.1620    -2.1120    -0.8080 sy         1 8RQ       1.179600
     29 OAK         -4.0580    -2.6630    -2.1650 o          1 8RQ      -0.539500
     30 OAL         -4.5590    -2.9400     0.3360 o          1 8RQ      -0.539500
     31 NAO         -5.2980    -0.8440    -0.9220 n3         1 8RQ      -0.778500
     32 CAP         -6.6360    -1.1680    -1.5040 c5         1 8RQ       0.228500
     33 CAV         -7.2800     0.1180    -2.1140 c5         1 8RQ      -0.095900
     34 CAW         -8.7850    -0.1930    -1.9370 c5         1 8RQ      -0.080400
     35 CAX         -8.8010    -0.6160    -0.4470 c5         1 8RQ      -0.080400
     36 CAY         -7.6260    -1.6360    -0.3780 c5         1 8RQ      -0.095900
     37 CAN         -5.2310     0.1460     0.1910 c3         1 8RQ       0.275100
     38 CAM         -4.2100     1.2640    -0.0220 ca         1 8RQ      -0.135300
     39 CAQ         -3.4210     1.7110     1.0590 ca         1 8RQ      -0.081000
     40 CAR         -2.4520     2.7100     0.8660 ca         1 8RQ      -0.111000
     41 CAS         -2.2720     3.2760    -0.4050 ca         1 8RQ       0.126000
     42 Cl1         -1.0440     4.5100    -0.6500 cl         1 8RQ      -0.198000
     43 CAT         -3.0670     2.8550    -1.4820 ca         1 8RQ      -0.111000
     44 CAU         -4.0360     1.8550    -1.2920 ca         1 8RQ      -0.081000
     45 H1           1.3670    -3.4620     1.2340 hc         1 8RQ       0.039700
     46 H2           2.3420    -2.5710     2.3940 hc         1 8RQ       0.039700
     47 H3           4.0410    -4.3760     2.4640 hc         1 8RQ       0.040450
     48 H4           2.4500    -5.0390     2.8220 hc         1 8RQ       0.040450
     49 H5           3.7230    -6.4990     1.2070 hc         1 8RQ       0.040200
     50 H6           2.2210    -5.9080     0.5040 hc         1 8RQ       0.040200
     51 H7           5.0400    -4.7680    -0.0000 hc         1 8RQ       0.040450
     52 H8           4.0630    -5.6740    -1.1510 hc         1 8RQ       0.040450
     53 H9           3.9540    -3.2040    -1.5970 hc         1 8RQ       0.039700
     54 H10          2.3630    -3.8620    -1.2280 hc         1 8RQ       0.039700
     55 H11          4.2080    -2.3750     0.7260 hc         1 8RQ       0.055700
     56 H12          3.1290    -0.9220    -0.9700 h1         1 8RQ       0.058700
     57 H13          1.5650    -1.5900    -0.5370 h1         1 8RQ       0.058700
     58 H14          3.3660     0.9460     2.3600 h1         1 8RQ       0.053200
     59 H15          4.0410    -0.6460     2.1350 h1         1 8RQ       0.053200
     60 H16          4.9980     0.0540    -0.0780 hc         1 8RQ       0.055700
     61 H17          4.3390     1.6710     0.1540 hc         1 8RQ       0.055700
     62 H18          5.7050     1.9230     2.2360 hc         1 8RQ       0.049700
     63 H19          6.3340     0.3220     2.0460 hc         1 8RQ       0.049700
     64 H20          5.2630     3.9270     0.6830 hc         1 8RQ       0.062700
     65 H21          6.4440     4.2380     1.9670 hc         1 8RQ       0.062700
     66 H22          6.5300     5.1310     0.4460 hc         1 8RQ       0.062700
     67 H23          8.7320     2.8300    -0.7970 ho         1 8RQ       0.464000
     68 H24          8.8400     1.1200    -0.6670 h4         1 8RQ      -0.058200
     69 H25          8.7180    -1.3680    -1.6190 h1         1 8RQ       0.040033
     70 H26          9.7930    -1.3380    -0.2020 h1         1 8RQ       0.040033
     71 H27          8.4640    -2.5130    -0.2860 h1         1 8RQ       0.040033
     72 H28         -0.4480    -0.5930     2.1090 ha         1 8RQ       0.137500
     73 H29         -2.5530    -1.8090     1.6450 ha         1 8RQ       0.140000
     74 H30         -0.2440     0.6450    -2.0400 ha         1 8RQ       0.137500
     75 H31         -2.3440    -0.5720    -2.5060 ha         1 8RQ       0.140000
     76 H32         -6.5650    -1.9400    -2.2850 h1         1 8RQ       0.080700
     77 H33         -7.0130     1.0470    -1.6010 hc         1 8RQ       0.054950
     78 H34         -7.0030     0.2490    -3.1660 hc         1 8RQ       0.054950
     79 H35         -9.4190     0.6800    -2.1320 hc         1 8RQ       0.047200
     80 H36         -9.1210    -1.0010    -2.5990 hc         1 8RQ       0.047200
     81 H37         -8.6260     0.2430     0.2130 hc         1 8RQ       0.047200
     82 H38         -9.7570    -1.0620    -0.1490 hc         1 8RQ       0.047200
     83 H39         -7.9820    -2.6490    -0.5970 hc         1 8RQ       0.054950
     84 H40         -7.1840    -1.6810     0.6230 hc         1 8RQ       0.054950
     85 H41         -6.2010     0.6330     0.3470 h1         1 8RQ       0.069700
     86 H42         -5.0160    -0.3650     1.1400 h1         1 8RQ       0.069700
     87 H43         -3.5430     1.2700     2.0460 ha         1 8RQ       0.129500
     88 H44         -1.8340     3.0380     1.6980 ha         1 8RQ       0.135000
     89 H45         -2.9260     3.2970    -2.4660 ha         1 8RQ       0.135000
     90 H46         -4.6350     1.5230    -2.1370 ha         1 8RQ       0.129500
@<TRIPOS>BOND
     1     1     2 1   
     2     1     6 1   
     3     1    45 1   
     4     1    46 1   
     5     2     3 1   
     6     2    47 1   
     7     2    48 1   
     8     3     4 1   
     9     3    49 1   
    10     3    50 1   
    11     4     5 1   
    12     4    51 1   
    13     4    52 1   
    14     5     6 1   
    15     5    53 1   
    16     5    54 1   
    17     6     7 1   
    18     6    55 1   
    19     7     8 1   
    20     7    56 1   
    21     7    57 1   
    22     8     9 1   
    23     8    19 1   
    24     9    10 1   
    25     9    58 1   
    26     9    59 1   
    27    10    11 1   
    28    10    60 1   
    29    10    61 1   
    30    11    12 1   
    31    11    62 1   
    32    11    63 1   
    33    12    13 2   
    34    12    16 1   
    35    13    14 1   
    36    13    15 1   
    37    14    64 1   
    38    14    65 1   
    39    14    66 1   
    40    15    67 1   
    41    16    17 2   
    42    16    68 1   
    43    17    18 1   
    44    18    69 1   
    45    18    70 1   
    46    18    71 1   
    47    19    20 2   
    48    19    21 2   
    49    19    22 1   
    50    22    23 ar  
    51    22    25 ar  
    52    23    24 ar  
    53    23    72 1   
    54    24    27 ar  
    55    24    73 1   
    56    25    26 ar  
    57    25    74 1   
    58    26    27 ar  
    59    26    75 1   
    60    27    28 1   
    61    28    29 2   
    62    28    30 2   
    63    28    31 1   
    64    31    32 1   
    65    31    37 1   
    66    32    33 1   
    67    32    36 1   
    68    32    76 1   
    69    33    34 1   
    70    33    77 1   
    71    33    78 1   
    72    34    35 1   
    73    34    79 1   
    74    34    80 1   
    75    35    36 1   
    76    35    81 1   
    77    35    82 1   
    78    36    83 1   
    79    36    84 1   
    80    37    38 1   
    81    37    85 1   
    82    37    86 1   
    83    38    39 ar  
    84    38    44 ar  
    85    39    40 ar  
    86    39    87 1   
    87    40    41 ar  
    88    40    88 1   
    89    41    42 1   
    90    41    43 ar  
    91    43    44 ar  
    92    43    89 1   
    93    44    90 1   
@<TRIPOS>SUBSTRUCTURE
     1 8RQ         1 TEMP              0 ****  ****    0 ROOT
