@<TRIPOS>MOLECULE
8RQ
   90    93     1     0     0
SMALL
bcc


@<TRIPOS>ATOM
      1 CBJ          1.5810    -3.4900     0.4310 c6         1 8RQ      -0.071400
      2 CBK          1.5500    -4.5880     1.4900 c6         1 8RQ      -0.072900
      3 CBL          2.1700    -5.8810     0.9730 c6         1 8RQ      -0.075400
      4 CBM          3.5860    -5.6390     0.4600 c6         1 8RQ      -0.072900
      5 CBN          3.6120    -4.5410    -0.5980 c6         1 8RQ      -0.071400
      6 CBO          2.9980    -3.2400    -0.0780 c6         1 8RQ      -0.079700
      7 CBP          3.0510    -2.1920    -1.1850 c3         1 8RQ       0.233800
      8 NBQ          2.5210    -0.8840    -0.8010 n3         1 8RQ      -0.799500
      9 CBA          3.2390    -0.1100     0.2090 c3         1 8RQ       0.232800
     10 CBB          4.3800     0.7250    -0.3540 c3         1 8RQ      -0.099400
     11 CBC          5.1300     1.4580     0.7570 c3         1 8RQ      -0.001200
     12 CBD          6.2400     2.3290     0.2280 ce         1 8RQ      -0.317800
     13 CBE          6.0250     3.6100    -0.1580 c2         1 8RQ       0.144900
     14 CBF          4.7060     4.3070    -0.1070 c3         1 8RQ      -0.059900
     15 OBG          6.9600     4.4390    -0.6600 oh         1 8RQ      -0.501100
     16 CBH          7.5450     1.7010     0.0760 ce         1 8RQ       0.481500
     17 NBI          7.7660     0.4910     0.3890 n2         1 8RQ      -0.598900
     18 CBR          9.0930    -0.0270     0.1900 c3         1 8RQ       0.091100
     19 SAG          1.3070    -0.1910    -1.6420 sy         1 8RQ       1.333200
     20 OAI          1.3710     1.2440    -1.4150 o          1 8RQ      -0.613800
     21 OAJ          1.3080    -0.7050    -3.0040 o          1 8RQ      -0.613800
     22 CAF         -0.2010    -0.7470    -0.8810 ca         1 8RQ      -0.231500
     23 CAE         -0.5660    -0.1990     0.3430 ca         1 8RQ      -0.057000
     24 CAD         -1.7370    -0.6110     0.9500 ca         1 8RQ      -0.057000
     25 CAA         -0.9830    -1.7080    -1.5000 ca         1 8RQ      -0.057000
     26 CAB         -2.1630    -2.1160    -0.8940 ca         1 8RQ      -0.057000
     27 CAC         -2.5390    -1.5510     0.3150 ca         1 8RQ      -0.237500
     28 SAH         -4.1130    -1.9820     1.0310 sy         1 8RQ       1.321200
     29 OAK         -4.4530    -3.3000     0.5190 o          1 8RQ      -0.610300
     30 OAL         -4.0160    -1.7800     2.4670 o          1 8RQ      -0.610300
     31 NAO         -5.2000    -0.8970     0.4540 n3         1 8RQ      -0.778500
     32 CAP         -5.6400    -1.0410    -0.9470 c5         1 8RQ       0.228500
     33 CAV         -4.7670    -0.2930    -1.9870 c5         1 8RQ      -0.095900
     34 CAW         -5.7150     0.6180    -2.7820 c5         1 8RQ      -0.080400
     35 CAX         -6.9190     0.8280    -1.8680 c5         1 8RQ      -0.080400
     36 CAY         -7.0730    -0.5280    -1.1840 c5         1 8RQ      -0.095900
     37 CAN         -5.5410     0.2650     1.2820 c3         1 8RQ       0.275100
     38 CAM         -4.4270     1.2430     1.5650 ca         1 8RQ      -0.135300
     39 CAQ         -3.9190     1.3560     2.8550 ca         1 8RQ      -0.099000
     40 CAR         -2.8740     2.2210     3.1470 ca         1 8RQ      -0.129000
     41 CAS         -2.3310     2.9840     2.1260 ca         1 8RQ       0.034400
     42 CL1         -1.0000     4.0410     2.4640 cl         1 8RQ      -0.106400
     43 CAT         -2.8400     2.9200     0.8380 ca         1 8RQ      -0.129000
     44 CAU         -3.8910     2.0570     0.5720 ca         1 8RQ      -0.099000
     45 H1           0.9440    -3.7830    -0.4130 hc         1 8RQ       0.039700
     46 H2           1.1520    -2.5720     0.8380 hc         1 8RQ       0.039700
     47 H3           2.1010    -4.2510     2.3760 hc         1 8RQ       0.040450
     48 H4           0.5210    -4.7610     1.8150 hc         1 8RQ       0.040450
     49 H5           2.1760    -6.6400     1.7590 hc         1 8RQ       0.040200
     50 H6           1.5530    -6.2800     0.1610 hc         1 8RQ       0.040200
     51 H7           4.2300    -5.3500     1.2970 hc         1 8RQ       0.040450
     52 H8           4.0050    -6.5620     0.0510 hc         1 8RQ       0.040450
     53 H9           4.6390    -4.3650    -0.9300 hc         1 8RQ       0.039700
     54 H10          3.0510    -4.8700    -1.4810 hc         1 8RQ       0.039700
     55 H11          3.6120    -2.9030     0.7670 hc         1 8RQ       0.055700
     56 H12          4.0850    -2.0640    -1.5200 h1         1 8RQ       0.058700
     57 H13          2.4960    -2.5590    -2.0480 h1         1 8RQ       0.058700
     58 H14          2.5430     0.5240     0.7600 h1         1 8RQ       0.053200
     59 H15          3.6240    -0.8230     0.9400 h1         1 8RQ       0.053200
     60 H16          5.0770     0.0870    -0.9040 hc         1 8RQ       0.055700
     61 H17          3.9760     1.4480    -1.0650 hc         1 8RQ       0.055700
     62 H18          4.4220     2.0390     1.3500 hc         1 8RQ       0.049700
     63 H19          5.5650     0.7250     1.4380 hc         1 8RQ       0.049700
     64 H20          3.9360     3.7200     0.3800 hc         1 8RQ       0.062700
     65 H21          4.7980     5.2580     0.4220 hc         1 8RQ       0.062700
     66 H22          4.3630     4.5340    -1.1190 hc         1 8RQ       0.062700
     67 H23          7.8290     4.0270    -0.7110 ho         1 8RQ       0.425000
     68 H24          8.3690     2.3020    -0.3340 h4         1 8RQ      -0.058200
     69 H25          9.0560    -0.8950    -0.4720 h1         1 8RQ       0.040033
     70 H26          9.8000     0.6970    -0.2340 h1         1 8RQ       0.040033
     71 H27          9.4990    -0.3810     1.1400 h1         1 8RQ       0.040033
     72 H28          0.0470     0.5470     0.8290 ha         1 8RQ       0.155500
     73 H29         -2.0150    -0.1920     1.9060 ha         1 8RQ       0.158000
     74 H30         -0.6960    -2.1400    -2.4480 ha         1 8RQ       0.155500
     75 H31         -2.7790    -2.8590    -1.3810 ha         1 8RQ       0.158000
     76 H32         -5.6260    -2.1090    -1.1520 h1         1 8RQ       0.080700
     77 H33         -3.9890     0.2820    -1.4860 hc         1 8RQ       0.054950
     78 H34         -4.2470    -0.9940    -2.6400 hc         1 8RQ       0.054950
     79 H35         -5.2390     1.5520    -3.0820 hc         1 8RQ       0.047200
     80 H36         -6.0350     0.1150    -3.6970 hc         1 8RQ       0.047200
     81 H37         -6.7170     1.6190    -1.1400 hc         1 8RQ       0.047200
     82 H38         -7.8170     1.1230    -2.4110 hc         1 8RQ       0.047200
     83 H39         -7.5600    -1.2190    -1.8760 hc         1 8RQ       0.054950
     84 H40         -7.6840    -0.5160    -0.2810 hc         1 8RQ       0.054950
     85 H41         -6.3510     0.7820     0.7720 h1         1 8RQ       0.069700
     86 H42         -5.9660    -0.0770     2.2250 h1         1 8RQ       0.069700
     87 H43         -4.3350     0.7510     3.6510 ha         1 8RQ       0.147500
     88 H44         -2.4850     2.2880     4.1530 ha         1 8RQ       0.153000
     89 H45         -2.4280     3.5360     0.0510 ha         1 8RQ       0.153000
     90 H46         -4.2880     2.0310    -0.4350 ha         1 8RQ       0.147500
@<TRIPOS>BOND
     1     1     2 1   
     2     1     6 1   
     3     1    45 1   
     4     1    46 1   
     5     2     3 1   
     6     2    47 1   
     7     2    48 1   
     8     3     4 1   
     9     3    49 1   
    10     3    50 1   
    11     4     5 1   
    12     4    51 1   
    13     4    52 1   
    14     5     6 1   
    15     5    53 1   
    16     5    54 1   
    17     6     7 1   
    18     6    55 1   
    19     7     8 1   
    20     7    56 1   
    21     7    57 1   
    22     8     9 1   
    23     8    19 1   
    24     9    10 1   
    25     9    58 1   
    26     9    59 1   
    27    10    11 1   
    28    10    60 1   
    29    10    61 1   
    30    11    12 1   
    31    11    62 1   
    32    11    63 1   
    33    12    13 2   
    34    12    16 1   
    35    13    14 1   
    36    13    15 1   
    37    14    64 1   
    38    14    65 1   
    39    14    66 1   
    40    15    67 1   
    41    16    17 2   
    42    16    68 1   
    43    17    18 1   
    44    18    69 1   
    45    18    70 1   
    46    18    71 1   
    47    19    20 2   
    48    19    21 2   
    49    19    22 1   
    50    22    23 ar  
    51    22    25 ar  
    52    23    24 ar  
    53    23    72 1   
    54    24    27 ar  
    55    24    73 1   
    56    25    26 ar  
    57    25    74 1   
    58    26    27 ar  
    59    26    75 1   
    60    27    28 1   
    61    28    29 2   
    62    28    30 2   
    63    28    31 1   
    64    31    32 1   
    65    31    37 1   
    66    32    33 1   
    67    32    36 1   
    68    32    76 1   
    69    33    34 1   
    70    33    77 1   
    71    33    78 1   
    72    34    35 1   
    73    34    79 1   
    74    34    80 1   
    75    35    36 1   
    76    35    81 1   
    77    35    82 1   
    78    36    83 1   
    79    36    84 1   
    80    37    38 1   
    81    37    85 1   
    82    37    86 1   
    83    38    39 ar  
    84    38    44 ar  
    85    39    40 ar  
    86    39    87 1   
    87    40    41 ar  
    88    40    88 1   
    89    41    42 1   
    90    41    43 ar  
    91    43    44 ar  
    92    43    89 1   
    93    44    90 1   
@<TRIPOS>SUBSTRUCTURE
     1 8RQ         1 TEMP              0 ****  ****    0 ROOT
