@<TRIPOS>MOLECULE
8RR
   47    49     1     0     0
SMALL
bcc


@<TRIPOS>ATOM
      1 C13          0.2770    -0.5190    -0.0710 cc         1 8RR      -0.009700
      2 C17         -4.3800    -0.8580     1.1570 ca         1 8RR      -0.047000
      3 C21         -8.4720    -0.8490     0.2150 c3         1 8RR      -0.026600
      4 C22         -9.9220    -0.5760    -0.2190 c          1 8RR       0.939600
      5 C26         -6.2750     2.5940    -0.5630 c3         1 8RR      -0.028800
      6 C05          6.9900     0.2330     0.2560 ca         1 8RR      -0.193300
      7 C06          6.1540     1.2100    -0.2680 ca         1 8RR      -0.086000
      8 C07          4.7850     1.0070    -0.3000 ca         1 8RR      -0.108000
      9 C08          4.2270    -0.1720     0.1900 ca         1 8RR      -0.094500
     10 C09          2.7850    -0.4250     0.1700 cc         1 8RR       0.571900
     11 C11          0.8980    -1.5730     0.5350 cd         1 8RR       0.367600
     12 C12          0.2070    -2.7730     1.0930 c3         1 8RR      -0.122400
     13 C14         -1.1820    -0.3250    -0.2720 c3         1 8RR       0.071000
     14 C16         -3.6290     0.2790     0.8970 ca         1 8RR      -0.075100
     15 C18         -5.7360    -0.8900     0.8610 ca         1 8RR      -0.252000
     16 C19         -6.3570     0.2260     0.3020 ca         1 8RR       0.202100
     17 C25         -5.6110     1.3900     0.0360 ca         1 8RR      -0.139300
     18 C27         -4.2610     1.3920     0.3410 ca         1 8RR      -0.056000
     19 C29          5.0780    -1.1470     0.7180 ca         1 8RR      -0.108000
     20 C30          6.4440    -0.9470     0.7520 ca         1 8RR      -0.086000
     21 F01          8.8340     0.8680     1.5610 f          1 8RR      -0.236967
     22 F03          9.1560    -0.6670     0.0920 f          1 8RR      -0.236967
     23 F04          8.8950     1.3770    -0.5270 f          1 8RR      -0.236967
     24 N10          2.2560    -1.5040     0.6460 nd         1 8RR      -0.646000
     25 O20         -7.6560     0.2840    -0.0150 os         1 8RR      -0.260900
     26 O23        -10.2030     0.5420    -0.6720 o          1 8RR      -0.813800
     27 O24        -10.6780    -1.5540    -0.0560 o          1 8RR      -0.813800
     28 S15         -1.9050     0.3200     1.2900 ss         1 8RR      -0.307000
     29 SE           1.5320     0.7600    -0.5510 ss         1 8RR      -0.374300
     30 H1          -3.9110    -1.7300     1.5940 ha         1 8RR       0.124000
     31 H2          -8.4640    -1.1190     1.2780 h1         1 8RR       0.021200
     32 H3          -8.0910    -1.7160    -0.3380 h1         1 8RR       0.021200
     33 H4          -7.1090     2.9420     0.0480 hc         1 8RR       0.042700
     34 H5          -5.5660     3.4140    -0.6600 hc         1 8RR       0.042700
     35 H6          -6.6770     2.3810    -1.5550 hc         1 8RR       0.042700
     36 H7           6.5510     2.1370    -0.6590 ha         1 8RR       0.147500
     37 H8           4.1670     1.7920    -0.7180 ha         1 8RR       0.154500
     38 H9           0.6190    -3.6880     0.6650 hc         1 8RR       0.053033
     39 H10          0.3480    -2.8260     2.1740 hc         1 8RR       0.053033
     40 H11         -0.8630    -2.7600     0.9010 hc         1 8RR       0.053033
     41 H12         -1.4000     0.3730    -1.0790 h1         1 8RR       0.077700
     42 H13         -1.6640    -1.2720    -0.5130 h1         1 8RR       0.077700
     43 H14         -6.2930    -1.7910     1.0780 ha         1 8RR       0.145000
     44 H15         -3.6800     2.2850     0.1380 ha         1 8RR       0.127000
     45 H16          4.6640    -2.0680     1.1030 ha         1 8RR       0.154500
     46 H17          7.0750    -1.7230     1.1660 ha         1 8RR       0.147500
     47 C02          8.4670     0.4540     0.3380 c3         1 8RR       0.721200
@<TRIPOS>BOND
     1     1    11 2   
     2     1    13 1   
     3     1    29 1   
     4     2    14 ar  
     5     2    15 ar  
     6     2    30 1   
     7     3     4 1   
     8     3    25 1   
     9     3    31 1   
    10     3    32 1   
    11     4    26 1   
    12     4    27 1   
    13     5    17 1   
    14     5    33 1   
    15     5    34 1   
    16     5    35 1   
    17     6     7 ar  
    18     6    20 ar  
    19     6    47 1   
    20     7     8 ar  
    21     7    36 1   
    22     8     9 ar  
    23     8    37 1   
    24     9    10 1   
    25     9    19 ar  
    26    10    24 2   
    27    10    29 1   
    28    11    12 1   
    29    11    24 1   
    30    12    38 1   
    31    12    39 1   
    32    12    40 1   
    33    13    28 1   
    34    13    41 1   
    35    13    42 1   
    36    14    18 ar  
    37    14    28 1   
    38    15    16 ar  
    39    15    43 1   
    40    16    17 ar  
    41    16    25 1   
    42    17    18 ar  
    43    18    44 1   
    44    19    20 ar  
    45    19    45 1   
    46    20    46 1   
    47    21    47 1   
    48    22    47 1   
    49    23    47 1   
@<TRIPOS>SUBSTRUCTURE
     1 8RR         1 TEMP              0 ****  ****    0 ROOT
