@<TRIPOS>MOLECULE
8RR
   47    49     1     0     0
SMALL
No Charge or Current Charge


@<TRIPOS>ATOM
      1 C13          0.4240    -0.5130    -0.1810 cc         1 8RR      -0.089300
      2 C17         -4.6170    -0.6160     1.8790 ca         1 8RR      -0.029000
      3 C21         -8.8190     0.0060     1.1480 c3         1 8RR      -0.003400
      4 C22        -10.2540     0.3350     0.6410 c          1 8RR       0.729000
      5 C26         -5.9680     1.1680    -1.8410 c3         1 8RR      -0.028800
      6 C05          7.0110     0.5080     0.7110 ca         1 8RR      -0.193300
      7 C06          6.0310     1.5220     0.7060 ca         1 8RR      -0.068000
      8 C07          4.6750     1.2090     0.5120 ca         1 8RR      -0.090000
      9 C08          4.2570    -0.1300     0.3220 ca         1 8RR      -0.094500
     10 C09          2.8350    -0.4720     0.1180 cc         1 8RR       0.571900
     11 C11          1.0380    -1.7460    -0.2130 cd         1 8RR       0.302300
     12 C12          0.3460    -3.0670    -0.4130 c3         1 8RR      -0.122400
     13 C14         -1.0410    -0.2060    -0.3290 c3         1 8RR       0.118900
     14 C16         -3.6790    -0.2420     0.9030 ca         1 8RR      -0.202000
     15 C18         -5.9890    -0.4210     1.6590 ca         1 8RR      -0.234000
     16 C19         -6.4410     0.1560     0.4530 ca         1 8RR       0.202100
     17 C25         -5.5030     0.5380    -0.5310 ca         1 8RR      -0.139300
     18 C27         -4.1270     0.3380    -0.3010 ca         1 8RR      -0.038000
     19 C29          5.2450    -1.1430     0.3390 ca         1 8RR      -0.090000
     20 C30          6.6010    -0.8290     0.5330 ca         1 8RR      -0.068000
     21 F01          8.8030     0.8370     2.2480 f          1 8RR      -0.115667
     22 F03          9.3180    -0.0260     0.3200 f          1 8RR      -0.115667
     23 F04          8.8090     2.0770     0.4620 f          1 8RR      -0.115667
     24 N10          2.4120    -1.7210    -0.0450 nd         1 8RR      -0.646000
     25 O20         -7.7850     0.3650     0.2000 os         1 8RR      -0.284100
     26 O23        -10.4040     0.8460    -0.4620 o          1 8RR      -0.708500
     27 O24        -11.1900     0.0630     1.3820 o          1 8RR      -0.708500
     28 S15         -1.9390    -0.5230     1.2570 ss         1 8RR      -0.228000
     29 SE           1.5860     0.7560     0.0710 ss         1 8RR      -0.229400
     30 H1          -4.2800    -1.0630     2.8130 ha         1 8RR       0.106000
     31 H2          -8.6700     0.5460     2.0920 h1         1 8RR       0.021200
     32 H3          -8.7820    -1.0710     1.3580 h1         1 8RR       0.021200
     33 H4          -6.5170     2.0990    -1.6560 hc         1 8RR       0.042700
     34 H5          -5.1280     1.4070    -2.5030 hc         1 8RR       0.042700
     35 H6          -6.6340     0.4890    -2.3870 hc         1 8RR       0.042700
     36 H7           6.3160     2.5620     0.8550 ha         1 8RR       0.129500
     37 H8           3.9550     2.0240     0.5140 ha         1 8RR       0.136500
     38 H9           1.0560    -3.9020    -0.3840 hc         1 8RR       0.053033
     39 H10         -0.4020    -3.2370     0.3700 hc         1 8RR       0.053033
     40 H11         -0.1650    -3.0960    -1.3810 hc         1 8RR       0.053033
     41 H12         -1.1690     0.8470    -0.6110 h1         1 8RR       0.077700
     42 H13         -1.4710    -0.8340    -1.1200 h1         1 8RR       0.077700
     43 H14         -6.6860    -0.7230     2.4340 ha         1 8RR       0.127000
     44 H15         -3.4200     0.6440    -1.0670 ha         1 8RR       0.109000
     45 H16          4.9670    -2.1860     0.2030 ha         1 8RR       0.136500
     46 H17          7.3320    -1.6360     0.5460 ha         1 8RR       0.129500
     47 C02          8.4890     0.8500     0.9330 c3         1 8RR       0.357300
@<TRIPOS>BOND
     1     1    11 2   
     2     1    13 1   
     3     1    29 1   
     4     2    14 ar  
     5     2    15 ar  
     6     2    30 1   
     7     3     4 1   
     8     3    25 1   
     9     3    31 1   
    10     3    32 1   
    11     4    26 1   
    12     4    27 1   
    13     5    17 1   
    14     5    33 1   
    15     5    34 1   
    16     5    35 1   
    17     6     7 ar  
    18     6    20 ar  
    19     6    47 1   
    20     7     8 ar  
    21     7    36 1   
    22     8     9 ar  
    23     8    37 1   
    24     9    10 1   
    25     9    19 ar  
    26    10    24 2   
    27    10    29 1   
    28    11    12 1   
    29    11    24 1   
    30    12    38 1   
    31    12    39 1   
    32    12    40 1   
    33    13    28 1   
    34    13    41 1   
    35    13    42 1   
    36    14    18 ar  
    37    14    28 1   
    38    15    16 ar  
    39    15    43 1   
    40    16    17 ar  
    41    16    25 1   
    42    17    18 ar  
    43    18    44 1   
    44    19    20 ar  
    45    19    45 1   
    46    20    46 1   
    47    21    47 1   
    48    22    47 1   
    49    23    47 1   
@<TRIPOS>SUBSTRUCTURE
     1 8RR         1 TEMP              0 ****  ****    0 ROOT
