@<TRIPOS>MOLECULE
8RS
   31    32     1     0     0
SMALL
No Charge or Current Charge


@<TRIPOS>ATOM
      1 N1          -2.4260    -0.1940     0.3740 n          1 8RS      -0.416800
      2 C4          -0.2640    -1.1700    -0.4650 c6         1 8RS       0.175300
      3 C5          -0.3330     1.2070     0.3330 c6         1 8RS       0.175300
      4 C6          -1.6790     0.9050     1.0510 c6         1 8RS       0.093500
      5 C7           1.8990     0.0490    -0.0040 ca         1 8RS       0.285000
      6 C8           2.7050    -1.0360     0.3920 ca         1 8RS      -0.155500
      7 C10          4.7100     0.1680    -0.2770 ca         1 8RS      -0.139000
      8 C1          -4.3980     1.2960    -0.2100 c3         1 8RS      -0.176100
      9 C2          -3.6150    -0.0090    -0.3690 c          1 8RS       0.609100
     10 C3          -1.6090    -1.4340     0.2690 c6         1 8RS       0.093500
     11 N2           0.4930    -0.0280     0.1420 nh         1 8RS      -0.787400
     12 C9           4.1040    -0.9800     0.2570 ca         1 8RS      -0.084000
     13 C11          3.9190     1.2580    -0.6740 ca         1 8RS      -0.084000
     14 C12          2.5210     1.1980    -0.5370 ca         1 8RS      -0.155500
     15 O1          -4.0440    -0.8920    -1.1000 o          1 8RS      -0.605100
     16 H1           0.3320    -2.0940    -0.4400 h1         1 8RS       0.046200
     17 H2          -0.4750    -0.9510    -1.5220 h1         1 8RS       0.046200
     18 H3          -0.5470     1.6660    -0.6430 h1         1 8RS       0.046200
     19 H4           0.2190     1.9460     0.9320 h1         1 8RS       0.046200
     20 H5          -2.2680     1.8280     1.1130 h1         1 8RS       0.062200
     21 H6          -1.4650     0.5970     2.0840 h1         1 8RS       0.062200
     22 H7           2.2470    -1.9240     0.8180 ha         1 8RS       0.112500
     23 H8           5.7920     0.2140    -0.3820 ha         1 8RS       0.114000
     24 H9          -3.7760     2.1290    -0.5540 hc         1 8RS       0.060033
     25 H10         -5.3550     1.2770    -0.7430 hc         1 8RS       0.060033
     26 H11         -4.5340     1.5130     0.8560 hc         1 8RS       0.060033
     27 H12         -1.3950    -1.8040     1.2820 h1         1 8RS       0.062200
     28 H13         -2.1580    -2.2290    -0.2530 h1         1 8RS       0.062200
     29 H14          4.7150    -1.8240     0.5690 ha         1 8RS       0.110000
     30 H15          4.3880     2.1480    -1.0900 ha         1 8RS       0.110000
     31 H16          1.9250     2.0460    -0.8590 ha         1 8RS       0.112500
@<TRIPOS>BOND
     1     1     4 1   
     2     1     9 1   
     3     1    10 1   
     4     2    10 1   
     5     2    11 1   
     6     2    16 1   
     7     2    17 1   
     8     3     4 1   
     9     3    11 1   
    10     3    18 1   
    11     3    19 1   
    12     4    20 1   
    13     4    21 1   
    14     5     6 ar  
    15     5    11 1   
    16     5    14 ar  
    17     6    12 ar  
    18     6    22 1   
    19     7    12 ar  
    20     7    13 ar  
    21     7    23 1   
    22     8     9 1   
    23     8    24 1   
    24     8    25 1   
    25     8    26 1   
    26     9    15 2   
    27    10    27 1   
    28    10    28 1   
    29    12    29 1   
    30    13    14 ar  
    31    13    30 1   
    32    14    31 1   
@<TRIPOS>SUBSTRUCTURE
     1 8RS         1 TEMP              0 ****  ****    0 ROOT
