@<TRIPOS>MOLECULE
8RS
   31    32     1     0     0
SMALL
bcc


@<TRIPOS>ATOM
      1 N1          -2.3590    -0.1520     0.3110 n          1 8RS      -0.483800
      2 C4          -0.2370    -1.1490    -0.3470 c6         1 8RS       0.175300
      3 C5          -0.3040     1.1690     0.3040 c6         1 8RS       0.175300
      4 C6          -1.6570     0.9350     0.9590 c6         1 8RS       0.093500
      5 C7           1.8440     0.0390     0.0650 ca         1 8RS       0.146600
      6 C8           2.6640    -1.0790     0.2780 ca         1 8RS      -0.173500
      7 C10          4.6300     0.1780    -0.3350 ca         1 8RS      -0.157000
      8 C1          -4.2620     1.2760    -0.2570 c3         1 8RS      -0.176100
      9 C2          -3.5650    -0.0640    -0.2940 c          1 8RS       0.676100
     10 C3          -1.5900    -1.3810     0.3010 c6         1 8RS       0.093500
     11 N2           0.4700    -0.0560     0.3080 nh         1 8RS      -0.649000
     12 C9           4.0300    -1.0090     0.0750 ca         1 8RS      -0.102000
     13 C11          3.8300     1.2900    -0.5420 ca         1 8RS      -0.102000
     14 C12          2.4540     1.2260    -0.3540 ca         1 8RS      -0.173500
     15 O1          -4.0860    -1.0260    -0.8480 o          1 8RS      -0.605100
     16 H1           0.3410    -2.0680    -0.2730 h1         1 8RS       0.046200
     17 H2          -0.3780    -0.9370    -1.4170 h1         1 8RS       0.046200
     18 H3          -0.4560     1.5640    -0.7120 h1         1 8RS       0.046200
     19 H4           0.2200     1.9330     0.8800 h1         1 8RS       0.046200
     20 H5          -2.2330     1.8550     0.9220 h1         1 8RS       0.062200
     21 H6          -1.5080     0.6860     2.0140 h1         1 8RS       0.062200
     22 H7           2.2320    -2.0070     0.6290 ha         1 8RS       0.130500
     23 H8           5.7000     0.2310    -0.4850 ha         1 8RS       0.132000
     24 H9          -3.6760     2.0510    -0.7510 hc         1 8RS       0.060033
     25 H10         -5.2160     1.1910    -0.7710 hc         1 8RS       0.060033
     26 H11         -4.4490     1.6100     0.7640 hc         1 8RS       0.060033
     27 H12         -1.4510    -1.7260     1.3300 h1         1 8RS       0.062200
     28 H13         -2.1320    -2.1500    -0.2430 h1         1 8RS       0.062200
     29 H14          4.6360    -1.8880     0.2550 ha         1 8RS       0.128000
     30 H15          4.2720     2.2230    -0.8670 ha         1 8RS       0.128000
     31 H16          1.8640     2.1110    -0.5510 ha         1 8RS       0.130500
@<TRIPOS>BOND
     1     1     4 1   
     2     1     9 1   
     3     1    10 1   
     4     2    10 1   
     5     2    11 1   
     6     2    16 1   
     7     2    17 1   
     8     3     4 1   
     9     3    11 1   
    10     3    18 1   
    11     3    19 1   
    12     4    20 1   
    13     4    21 1   
    14     5     6 ar  
    15     5    11 1   
    16     5    14 ar  
    17     6    12 ar  
    18     6    22 1   
    19     7    12 ar  
    20     7    13 ar  
    21     7    23 1   
    22     8     9 1   
    23     8    24 1   
    24     8    25 1   
    25     8    26 1   
    26     9    15 2   
    27    10    27 1   
    28    10    28 1   
    29    12    29 1   
    30    13    14 ar  
    31    13    30 1   
    32    14    31 1   
@<TRIPOS>SUBSTRUCTURE
     1 8RS         1 TEMP              0 ****  ****    0 ROOT
