@<TRIPOS>MOLECULE
8RT
   53    56     1     0     0
SMALL
No Charge or Current Charge


@<TRIPOS>ATOM
      1 C2          -7.0500     1.0530     1.3740 c3         1 8RT       0.515000
      2 C41          5.6720    -0.6710     0.0850 ca         1 8RT      -0.125800
      3 C42          6.5320     0.4070    -0.1700 ca         1 8RT      -0.063000
      4 C44          7.9110     0.1340    -0.2890 ca         1 8RT      -0.144000
      5 C46          8.3930    -1.1900    -0.1520 ca         1 8RT      -0.090000
      6 C48          7.4990    -2.2520     0.1050 ca         1 8RT      -0.127000
      7 C12         -4.5060    -0.8050    -2.4140 ca         1 8RT      -0.077000
      8 C14         -5.6890    -0.6120    -1.6850 ca         1 8RT      -0.131000
      9 C18         -0.7980     1.2310    -0.7720 c          1 8RT       0.614100
     10 C20          0.0620     2.0430     0.2540 c5         1 8RT       0.049700
     11 C23          2.3410     3.0140     0.0710 c5         1 8RT       0.108000
     12 C26          1.3160     4.1000     0.4780 c5         1 8RT      -0.092400
     13 C29          0.0090     3.5510    -0.1430 c5         1 8RT      -0.089400
     14 F1          -6.7290     2.3580     1.2150 f          1 8RT      -0.110000
     15 F3          -6.3000     0.5580     2.3860 f          1 8RT      -0.110000
     16 F4          -8.3370     1.0150     1.7860 f          1 8RT      -0.110000
     17 O5          -6.8850     0.3000     0.1560 os         1 8RT      -0.404100
     18 C6          -5.6820     0.1540    -0.5090 ca         1 8RT       0.119100
     19 C7          -4.4690     0.7310    -0.0660 ca         1 8RT      -0.167000
     20 C9          -3.2760     0.5460    -0.7920 ca         1 8RT       0.001000
     21 C10         -3.3030    -0.2310    -1.9720 ca         1 8RT      -0.124000
     22 N16         -2.0970     1.1560    -0.2830 ns         1 8RT      -0.140000
     23 O19         -0.4120     0.7510    -1.8350 o          1 8RT      -0.561100
     24 N22          1.5320     1.7820     0.2160 n          1 8RT      -0.426800
     25 C32          2.0690     0.4860     0.3280 c          1 8RT       0.671100
     26 O33          1.3560    -0.4820     0.5470 o          1 8RT      -0.644100
     27 N34          3.4380     0.4010     0.1870 ns         1 8RT      -0.395100
     28 C36          4.2510    -0.7210     0.2560 cc         1 8RT       0.013400
     29 C37          3.8940    -2.0410     0.4900 cd         1 8RT      -0.165100
     30 N39          5.0730    -2.8220     0.4680 na         1 8RT      -0.086700
     31 C40          6.1310    -1.9550     0.2200 ca         1 8RT      -0.032200
     32 H2           8.6080     0.9450    -0.4870 ha         1 8RT       0.109000
     33 H3           9.4580    -1.3900    -0.2450 ha         1 8RT       0.109000
     34 H4           7.8660    -3.2700     0.2110 ha         1 8RT       0.114000
     35 H5           5.6620    -4.7210    -0.2340 h1         1 8RT       0.048700
     36 H6           5.8640    -4.4650     1.5260 h1         1 8RT       0.048700
     37 H7           4.2320    -4.7230     0.8400 h1         1 8RT       0.048700
     38 H8          -4.5200    -1.4030    -3.3240 ha         1 8RT       0.123000
     39 H9          -6.6180    -1.0580    -2.0310 ha         1 8RT       0.136000
     40 H10         -0.3210     1.8790     1.2710 h1         1 8RT       0.064700
     41 H11          2.6730     3.1410    -0.9690 h1         1 8RT       0.049700
     42 H12          3.2190     3.0280     0.7290 h1         1 8RT       0.049700
     43 H13          1.2340     4.1760     1.5690 hc         1 8RT       0.058700
     44 H14          1.5850     5.0930     0.0990 hc         1 8RT       0.058700
     45 H15          0.0170     3.6840    -1.2330 hc         1 8RT       0.064700
     46 H16         -0.8860     4.0560     0.2390 hc         1 8RT       0.064700
     47 H17         -4.4330     1.3280     0.8390 ha         1 8RT       0.129000
     48 H18         -2.4060    -0.4050    -2.5580 ha         1 8RT       0.155000
     49 H19         -2.2340     1.6250     0.6040 hn         1 8RT       0.154000
     50 H20          3.8840     1.2870     0.0030 hn         1 8RT       0.321500
     51 H21          2.9170    -2.4770     0.6660 h4         1 8RT       0.242000
     52 H1           6.1540     1.4210    -0.2740 ha         1 8RT       0.103000
     53 C50          5.2170    -4.2730     0.6620 c3         1 8RT       0.067900
@<TRIPOS>BOND
     1     1    14 1   
     2     1    15 1   
     3     1    16 1   
     4     1    17 1   
     5     2     3 ar  
     6     2    28 1   
     7     2    31 ar  
     8     3     4 ar  
     9     3    52 1   
    10     4     5 ar  
    11     4    32 1   
    12     5     6 ar  
    13     5    33 1   
    14     6    31 ar  
    15     6    34 1   
    16     7     8 ar  
    17     7    21 ar  
    18     7    38 1   
    19     8    18 ar  
    20     8    39 1   
    21     9    10 1   
    22     9    22 1   
    23     9    23 2   
    24    10    13 1   
    25    10    24 1   
    26    10    40 1   
    27    11    12 1   
    28    11    24 1   
    29    11    41 1   
    30    11    42 1   
    31    12    13 1   
    32    12    43 1   
    33    12    44 1   
    34    13    45 1   
    35    13    46 1   
    36    17    18 1   
    37    18    19 ar  
    38    19    20 ar  
    39    19    47 1   
    40    20    21 ar  
    41    20    22 1   
    42    21    48 1   
    43    22    49 1   
    44    24    25 1   
    45    25    26 2   
    46    25    27 1   
    47    27    28 1   
    48    27    50 1   
    49    28    29 2   
    50    29    30 1   
    51    29    51 1   
    52    30    31 1   
    53    30    53 1   
    54    35    53 1   
    55    36    53 1   
    56    37    53 1   
@<TRIPOS>SUBSTRUCTURE
     1 8RT         1 TEMP              0 ****  ****    0 ROOT
