@<TRIPOS>MOLECULE
8RT
   53    56     1     0     0
SMALL
abcg2


@<TRIPOS>ATOM
      1 C2          -7.2160     0.4360     0.6810 c3         1 8RT       0.515000
      2 C41          5.4930    -0.6910    -0.0420 ca         1 8RT      -0.125800
      3 C42          6.5090     0.2280    -0.3290 ca         1 8RT      -0.063000
      4 C44          7.8050    -0.2320    -0.4570 ca         1 8RT      -0.144000
      5 C46          8.1080    -1.5960    -0.3010 ca         1 8RT      -0.090000
      6 C48          7.1250    -2.5220    -0.0140 ca         1 8RT      -0.127000
      7 C12         -4.0600    -0.6510    -2.2270 ca         1 8RT      -0.077000
      8 C14         -5.1870    -0.8140    -1.4360 ca         1 8RT      -0.131000
      9 C18         -0.6480     1.5390    -0.4490 c          1 8RT       0.614100
     10 C20          0.2320     2.3630     0.4830 c5         1 8RT       0.049700
     11 C23          2.4290     3.2870     0.0450 c5         1 8RT       0.108000
     12 C26          1.4980     4.3990     0.5090 c5         1 8RT      -0.092400
     13 C29          0.1150     3.8610     0.1630 c5         1 8RT      -0.089400
     14 F1          -7.7960     0.5680    -0.5130 f          1 8RT      -0.110000
     15 F3          -6.7830     1.6480     1.0350 f          1 8RT      -0.110000
     16 F4          -8.1360     0.0520     1.5510 f          1 8RT      -0.110000
     17 O5          -6.2440    -0.4840     0.6880 os         1 8RT      -0.404100
     18 C6          -5.1560    -0.2880    -0.1570 ca         1 8RT       0.119100
     19 C7          -4.0510     0.3750     0.3370 ca         1 8RT      -0.167000
     20 C9          -2.9210     0.5310    -0.4690 ca         1 8RT       0.001000
     21 C10         -2.9330     0.0140    -1.7660 ca         1 8RT      -0.124000
     22 N16         -1.8410     1.2020     0.1030 ns         1 8RT      -0.140000
     23 O19         -0.3130     1.2800    -1.5870 o          1 8RT      -0.561100
     24 N22          1.6320     2.0880     0.2630 n          1 8RT      -0.426800
     25 C32          2.0870     0.8170     0.3770 c          1 8RT       0.671100
     26 O33          1.3520    -0.1000     0.7310 o          1 8RT      -0.644100
     27 N34          3.4020     0.6320     0.0740 ns         1 8RT      -0.395100
     28 C36          4.0800    -0.5830     0.1550 cc         1 8RT       0.013400
     29 C37          3.6180    -1.8440     0.4180 cd         1 8RT      -0.165100
     30 N39          4.6700    -2.7310     0.3980 na         1 8RT      -0.086700
     31 C40          5.8160    -2.0570     0.1160 ca         1 8RT      -0.032200
     32 H2           8.6020     0.4660    -0.6780 ha         1 8RT       0.109000
     33 H3           9.1340    -1.9250    -0.4080 ha         1 8RT       0.109000
     34 H4           7.3660    -3.5710     0.1080 ha         1 8RT       0.114000
     35 H5           4.8430    -4.7080    -0.2840 h1         1 8RT       0.048700
     36 H6           5.2150    -4.4710     1.4310 h1         1 8RT       0.048700
     37 H7           3.5430    -4.4010     0.8710 h1         1 8RT       0.048700
     38 H8          -4.0540    -1.0550    -3.2300 ha         1 8RT       0.123000
     39 H9          -6.0530    -1.3490    -1.8000 ha         1 8RT       0.136000
     40 H10         -0.0440     2.1780     1.5280 h1         1 8RT       0.064700
     41 H11          2.6960     3.4050    -1.0100 h1         1 8RT       0.049700
     42 H12          3.3500     3.2620     0.6320 h1         1 8RT       0.049700
     43 H13          1.5930     4.5380     1.5880 hc         1 8RT       0.058700
     44 H14          1.7180     5.3500     0.0270 hc         1 8RT       0.058700
     45 H15         -0.0870     4.0060    -0.9010 hc         1 8RT       0.064700
     46 H16         -0.6890     4.3330     0.7250 hc         1 8RT       0.064700
     47 H17         -4.0560     0.7560     1.3510 ha         1 8RT       0.129000
     48 H18         -2.0780     0.1130    -2.4120 ha         1 8RT       0.155000
     49 H19         -1.9750     1.4770     1.0650 hn         1 8RT       0.154000
     50 H20          3.9180     1.3940    -0.3340 hn         1 8RT       0.321500
     51 H21          2.6230    -2.1920     0.6270 h4         1 8RT       0.242000
     52 H1           6.2970     1.2840    -0.4470 ha         1 8RT       0.103000
     53 C50          4.5690    -4.1520     0.6130 c3         1 8RT       0.067900
@<TRIPOS>BOND
     1     1    14 1   
     2     1    15 1   
     3     1    16 1   
     4     1    17 1   
     5     2     3 ar  
     6     2    28 1   
     7     2    31 ar  
     8     3     4 ar  
     9     3    52 1   
    10     4     5 ar  
    11     4    32 1   
    12     5     6 ar  
    13     5    33 1   
    14     6    31 ar  
    15     6    34 1   
    16     7     8 ar  
    17     7    21 ar  
    18     7    38 1   
    19     8    18 ar  
    20     8    39 1   
    21     9    10 1   
    22     9    22 1   
    23     9    23 2   
    24    10    13 1   
    25    10    24 1   
    26    10    40 1   
    27    11    12 1   
    28    11    24 1   
    29    11    41 1   
    30    11    42 1   
    31    12    13 1   
    32    12    43 1   
    33    12    44 1   
    34    13    45 1   
    35    13    46 1   
    36    17    18 1   
    37    18    19 ar  
    38    19    20 ar  
    39    19    47 1   
    40    20    21 ar  
    41    20    22 1   
    42    21    48 1   
    43    22    49 1   
    44    24    25 1   
    45    25    26 2   
    46    25    27 1   
    47    27    28 1   
    48    27    50 1   
    49    28    29 2   
    50    29    30 1   
    51    29    51 1   
    52    30    31 1   
    53    30    53 1   
    54    35    53 1   
    55    36    53 1   
    56    37    53 1   
@<TRIPOS>SUBSTRUCTURE
     1 8RT         1 TEMP              0 ****  ****    0 ROOT
