@<TRIPOS>MOLECULE
8RU
   20    20     1     0     0
SMALL
No Charge or Current Charge


@<TRIPOS>ATOM
      1 O01        -20.0230     3.8770    -9.3710 oh         1 8RU      -0.536100
      2 O02        -21.9130     5.3550    -7.9930 oh         1 8RU      -0.560100
      3 C03        -18.5340     7.2390    -9.6090 ca         1 8RU      -0.070300
      4 C04        -17.3090     7.9260   -10.1990 c3         1 8RU      -0.028100
      5 C05        -18.7140     5.8510    -9.7650 ca         1 8RU      -0.119000
      6 C06        -19.5000     7.9880    -8.9080 ca         1 8RU      -0.110000
      7 C07        -19.8460     5.2210    -9.2230 ca         1 8RU       0.122100
      8 C08        -17.5440     8.3840   -11.6500 c3         1 8RU      -0.087100
      9 C09        -20.6350     7.3590    -8.3640 ca         1 8RU      -0.156000
     10 C10        -20.8090     5.9730    -8.5200 ca         1 8RU       0.039100
     11 H1         -20.8710     3.6680    -8.9170 ho         1 8RU       0.481000
     12 H2         -22.4700     6.0290    -7.5430 ho         1 8RU       0.473000
     13 H3         -16.4470     7.2480   -10.1750 hc         1 8RU       0.045200
     14 H4         -17.0310     8.7960    -9.5910 hc         1 8RU       0.045200
     15 H5         -17.9780     5.2610   -10.3060 ha         1 8RU       0.129000
     16 H6         -19.3720     9.0620    -8.7850 ha         1 8RU       0.114000
     17 H7         -16.6470     8.8740   -12.0470 hc         1 8RU       0.035033
     18 H8         -17.7820     7.5280   -12.2930 hc         1 8RU       0.035033
     19 H9         -18.3760     9.0960   -11.7000 hc         1 8RU       0.035033
     20 H10        -21.3710     7.9520    -7.8260 ha         1 8RU       0.112000
@<TRIPOS>BOND
     1     1     7 1   
     2     1    11 1   
     3     2    10 1   
     4     2    12 1   
     5     3     4 1   
     6     3     5 ar  
     7     3     6 ar  
     8     4     8 1   
     9     4    13 1   
    10     4    14 1   
    11     5     7 ar  
    12     5    15 1   
    13     6     9 ar  
    14     6    16 1   
    15     7    10 ar  
    16     8    17 1   
    17     8    18 1   
    18     8    19 1   
    19     9    10 ar  
    20     9    20 1   
@<TRIPOS>SUBSTRUCTURE
     1 8RU         1 TEMP              0 ****  ****    0 ROOT
