@<TRIPOS>MOLECULE
8RU
   20    20     1     0     0
SMALL
bcc


@<TRIPOS>ATOM
      1 O01        -20.0320     3.9530    -9.4390 oh         1 8RU      -0.497100
      2 O02        -21.8670     5.3420    -8.0220 oh         1 8RU      -0.521100
      3 C03        -18.5280     7.2690    -9.5760 ca         1 8RU      -0.070300
      4 C04        -17.3310     7.9430   -10.1910 c3         1 8RU      -0.028100
      5 C05        -18.7420     5.9030    -9.7480 ca         1 8RU      -0.137000
      6 C06        -19.4690     8.0010    -8.8620 ca         1 8RU      -0.128000
      7 C07        -19.8650     5.2770    -9.2300 ca         1 8RU       0.122100
      8 C08        -17.5540     8.3120   -11.6550 c3         1 8RU      -0.087100
      9 C09        -20.5980     7.3840    -8.3320 ca         1 8RU      -0.174000
     10 C10        -20.8030     6.0260    -8.5080 ca         1 8RU       0.039100
     11 H1         -20.8520     3.6510    -9.0320 ho         1 8RU       0.442000
     12 H2         -22.4860     5.9350    -7.5830 ho         1 8RU       0.434000
     13 H3         -16.4580     7.2890   -10.1150 hc         1 8RU       0.045200
     14 H4         -17.0890     8.8440    -9.6250 hc         1 8RU       0.045200
     15 H5         -18.0150     5.3000   -10.2820 ha         1 8RU       0.147000
     16 H6         -19.3290     9.0650    -8.7130 ha         1 8RU       0.132000
     17 H7         -16.6820     8.8250   -12.0630 hc         1 8RU       0.035033
     18 H8         -17.7350     7.4290   -12.2690 hc         1 8RU       0.035033
     19 H9         -18.4140     8.9730   -11.7680 hc         1 8RU       0.035033
     20 H10        -21.3220     7.9670    -7.7730 ha         1 8RU       0.130000
@<TRIPOS>BOND
     1     1     7 1   
     2     1    11 1   
     3     2    10 1   
     4     2    12 1   
     5     3     4 1   
     6     3     5 ar  
     7     3     6 ar  
     8     4     8 1   
     9     4    13 1   
    10     4    14 1   
    11     5     7 ar  
    12     5    15 1   
    13     6     9 ar  
    14     6    16 1   
    15     7    10 ar  
    16     8    17 1   
    17     8    18 1   
    18     8    19 1   
    19     9    10 ar  
    20     9    20 1   
@<TRIPOS>SUBSTRUCTURE
     1 8RU         1 TEMP              0 ****  ****    0 ROOT
