@<TRIPOS>MOLECULE
8RV
   37    38     1     0     0
SMALL
No Charge or Current Charge


@<TRIPOS>ATOM
      1 N1          -3.1820     0.1470     0.2140 ns         1 8RV      -0.509900
      2 C4          -1.7720     2.1540    -0.1950 c6         1 8RV      -0.092900
      3 C5          -0.6650     1.8450     0.8420 c6         1 8RV       0.166800
      4 C6          -0.1540    -0.2870    -0.2720 c6         1 8RV       0.166800
      5 C7          -1.2410    -0.0230    -1.3400 c6         1 8RV      -0.092900
      6 C8           1.5220     0.7760     1.2120 c3         1 8RV       0.215100
      7 C10          3.4930     0.7100    -0.3970 ca         1 8RV      -0.098500
      8 C13          4.1810    -1.8870     0.4250 ca         1 8RV      -0.114000
      9 C1          -4.8330    -1.3690     1.1810 c3         1 8RV      -0.180100
     10 C2          -4.1860    -0.7540    -0.0520 c          1 8RV       0.598100
     11 C3          -2.3850     0.8650    -0.7930 c6         1 8RV       0.118700
     12 N2           0.4030     0.9880     0.2630 n3         1 8RV      -0.721600
     13 C9           2.7230     0.0660     0.5920 ca         1 8RV      -0.088300
     14 C11          4.6000     0.0610    -0.9710 ca         1 8RV      -0.114000
     15 C12          4.9440    -1.2380    -0.5600 ca         1 8RV      -0.109000
     16 C14          3.0740    -1.2370     1.0000 ca         1 8RV      -0.098500
     17 O1          -4.5320    -1.0380    -1.1890 o          1 8RV      -0.611100
     18 H1          -2.9770     0.3110     1.1920 hn         1 8RV       0.309500
     19 H2          -2.5570     2.7670     0.2670 hc         1 8RV       0.059700
     20 H3          -1.3440     2.7610    -1.0040 hc         1 8RV       0.059700
     21 H4          -0.2390     2.7970     1.1920 h1         1 8RV       0.031200
     22 H5          -1.1130     1.3540     1.7190 h1         1 8RV       0.031200
     23 H6          -0.5830    -0.8880     0.5440 h1         1 8RV       0.031200
     24 H7           0.6400    -0.8920    -0.7330 h1         1 8RV       0.031200
     25 H8          -0.7790     0.4700    -2.2060 hc         1 8RV       0.059700
     26 H9          -1.6410    -0.9770    -1.7080 hc         1 8RV       0.059700
     27 H10          1.8700     1.7460     1.5940 h1         1 8RV       0.036200
     28 H11          1.1720     0.2020     2.0810 h1         1 8RV       0.036200
     29 H13          4.4460    -2.8920     0.7440 ha         1 8RV       0.111500
     30 H14         -5.1990    -0.5660     1.8310 hc         1 8RV       0.058367
     31 H15         -5.6280    -2.0810     0.9310 hc         1 8RV       0.058367
     32 H16         -4.0550    -1.8320     1.7990 hc         1 8RV       0.058367
     33 H17         -3.0530     1.1430    -1.6230 h1         1 8RV       0.074700
     34 H19          5.1890     0.5640    -1.7350 ha         1 8RV       0.111500
     35 H20          5.8010    -1.7410    -1.0040 ha         1 8RV       0.111000
     36 H21          2.4870    -1.7480     1.7600 ha         1 8RV       0.116500
     37 H12          3.2280     1.7140    -0.7210 ha         1 8RV       0.116500
@<TRIPOS>BOND
     1     1    10 1   
     2     1    11 1   
     3     1    18 1   
     4     2     3 1   
     5     2    11 1   
     6     2    19 1   
     7     2    20 1   
     8     3    12 1   
     9     3    21 1   
    10     3    22 1   
    11     4     5 1   
    12     4    12 1   
    13     4    23 1   
    14     4    24 1   
    15     5    11 1   
    16     5    25 1   
    17     5    26 1   
    18     6    12 1   
    19     6    13 1   
    20     6    27 1   
    21     6    28 1   
    22     7    13 ar  
    23     7    14 ar  
    24     7    37 1   
    25     8    15 ar  
    26     8    16 ar  
    27     8    29 1   
    28     9    10 1   
    29     9    30 1   
    30     9    31 1   
    31     9    32 1   
    32    10    17 2   
    33    11    33 1   
    34    13    16 ar  
    35    14    15 ar  
    36    14    34 1   
    37    15    35 1   
    38    16    36 1   
@<TRIPOS>SUBSTRUCTURE
     1 8RV         1 TEMP              0 ****  ****    0 ROOT
