@<TRIPOS>MOLECULE
8RV
   37    38     1     0     0
SMALL
abcg2


@<TRIPOS>ATOM
      1 N1          -3.1730     0.1940     0.2010 ns         1 8RV      -0.509900
      2 C4          -1.6950     2.0990    -0.1460 c6         1 8RV      -0.092900
      3 C5          -0.6260     1.7430     0.8770 c6         1 8RV       0.166800
      4 C6          -0.1850    -0.3450    -0.2230 c6         1 8RV       0.166800
      5 C7          -1.2210    -0.0530    -1.2960 c6         1 8RV      -0.092900
      6 C8           1.4560     0.6220     1.2430 c3         1 8RV       0.215100
      7 C10          3.1640     0.5030    -0.6070 ca         1 8RV      -0.098500
      8 C13          4.5120    -1.5620     0.6610 ca         1 8RV      -0.114000
      9 C1          -4.8960    -1.2760     1.0380 c3         1 8RV      -0.180100
     10 C2          -4.1440    -0.6730    -0.1250 c          1 8RV       0.598100
     11 C3          -2.3290     0.8620    -0.7750 c6         1 8RV       0.118700
     12 N2           0.3900     0.8820     0.3000 n3         1 8RV      -0.721600
     13 C9           2.6750     0.0100     0.6020 ca         1 8RV      -0.088300
     14 C11          4.3120    -0.0280    -1.1750 ca         1 8RV      -0.114000
     15 C12          4.9930    -1.0620    -0.5410 ca         1 8RV      -0.109000
     16 C14          3.3580    -1.0300     1.2240 ca         1 8RV      -0.098500
     17 O1          -4.4160    -0.9630    -1.2840 o          1 8RV      -0.611100
     18 H1          -3.0060     0.3730     1.1780 hn         1 8RV       0.309500
     19 H2          -2.4580     2.7260     0.3210 hc         1 8RV       0.059700
     20 H3          -1.2400     2.6910    -0.9440 hc         1 8RV       0.059700
     21 H4          -0.1500     2.6630     1.2250 h1         1 8RV       0.031200
     22 H5          -1.0860     1.2860     1.7730 h1         1 8RV       0.031200
     23 H6          -0.6360    -0.9530     0.5820 h1         1 8RV       0.031200
     24 H7           0.6120    -0.9530    -0.6550 h1         1 8RV       0.031200
     25 H8          -0.7330     0.4400    -2.1410 hc         1 8RV       0.059700
     26 H9          -1.6420    -0.9880    -1.6690 hc         1 8RV       0.059700
     27 H10          1.7470     1.5770     1.6930 h1         1 8RV       0.036200
     28 H11          1.1230    -0.0170     2.0790 h1         1 8RV       0.036200
     29 H13          5.0310    -2.3700     1.1610 ha         1 8RV       0.111500
     30 H14         -4.5750    -0.9030     2.0090 hc         1 8RV       0.058367
     31 H15         -5.9610    -1.0760     0.9250 hc         1 8RV       0.058367
     32 H16         -4.7660    -2.3580     1.0260 hc         1 8RV       0.058367
     33 H17         -2.9620     1.1710    -1.6100 h1         1 8RV       0.074700
     34 H19          4.6780     0.3640    -2.1150 ha         1 8RV       0.111500
     35 H20          5.8890    -1.4770    -0.9840 ha         1 8RV       0.111000
     36 H21          2.9850    -1.4300     2.1600 ha         1 8RV       0.116500
     37 H12          2.6290     1.3000    -1.1080 ha         1 8RV       0.116500
@<TRIPOS>BOND
     1     1    10 1   
     2     1    11 1   
     3     1    18 1   
     4     2     3 1   
     5     2    11 1   
     6     2    19 1   
     7     2    20 1   
     8     3    12 1   
     9     3    21 1   
    10     3    22 1   
    11     4     5 1   
    12     4    12 1   
    13     4    23 1   
    14     4    24 1   
    15     5    11 1   
    16     5    25 1   
    17     5    26 1   
    18     6    12 1   
    19     6    13 1   
    20     6    27 1   
    21     6    28 1   
    22     7    13 ar  
    23     7    14 ar  
    24     7    37 1   
    25     8    15 ar  
    26     8    16 ar  
    27     8    29 1   
    28     9    10 1   
    29     9    30 1   
    30     9    31 1   
    31     9    32 1   
    32    10    17 2   
    33    11    33 1   
    34    13    16 ar  
    35    14    15 ar  
    36    14    34 1   
    37    15    35 1   
    38    16    36 1   
@<TRIPOS>SUBSTRUCTURE
     1 8RV         1 TEMP              0 ****  ****    0 ROOT
