@<TRIPOS>MOLECULE
8RW
   54    57     1     0     0
SMALL
No Charge or Current Charge


@<TRIPOS>ATOM
      1 C4          -0.8420    -4.7850    -0.3950 c5         1 8RW      -0.091400
      2 C14         -7.4200     1.1090    -1.4370 ca         1 8RW      -0.095000
      3 C5          -1.6990    -3.5410    -0.7310 c5         1 8RW       0.108000
      4 C6          -1.5630    -1.2480     0.3880 c          1 8RW       0.673100
      5 C11         -4.9130     0.2870    -0.5550 ca         1 8RW      -0.125800
      6 C7          -3.6150     0.1180     0.0380 cc         1 8RW       0.043400
      7 C8          -3.3890     1.2650     0.7680 cd         1 8RW      -0.151400
      8 C10         -5.4050     1.5180    -0.1580 ca         1 8RW      -0.050000
      9 C12         -5.6390    -0.5710    -1.3940 ca         1 8RW      -0.074000
     10 C13         -6.9080    -0.1470    -1.8370 ca         1 8RW      -0.131000
     11 N1          -0.9990    -2.4890     0.0410 n          1 8RW      -0.424800
     12 N2          -2.8130    -0.9990    -0.1340 ns         1 8RW      -0.398100
     13 C3           0.5860    -4.1900    -0.3740 c5         1 8RW      -0.088400
     14 N3          -4.4560     2.1850     0.6970 n          1 8RW      -0.097600
     15 C1           1.5150    -1.8690     0.0500 c          1 8RW       0.610100
     16 C2           0.3850    -2.8770     0.4460 c5         1 8RW       0.049700
     17 N4          -3.5060     3.8500     2.0840 nt         1 8RW      -0.597000
     18 O2          -5.5150     4.1970     1.2120 o          1 8RW      -0.601100
     19 C15         -6.6700     1.9540    -0.5920 ca         1 8RW      -0.099000
     20 O3          -0.9740    -0.4590     1.1120 o          1 8RW      -0.643100
     21 N5           2.5870    -2.0580     0.9150 ns         1 8RW      -0.138000
     22 C16          3.8560    -1.4240     1.0190 ca         1 8RW      -0.002000
     23 C17          4.7540    -1.9310     1.9750 ca         1 8RW      -0.161000
     24 C18          6.0250    -1.3590     2.1380 ca         1 8RW      -0.074000
     25 C19          6.4080    -0.2680     1.3440 ca         1 8RW      -0.130000
     26 C20          5.5280     0.2580     0.3860 ca         1 8RW       0.118100
     27 O4           5.9790     1.3360    -0.3550 os         1 8RW      -0.405100
     28 C21          5.2090     1.9980    -1.3790 c3         1 8RW       0.515000
     29 F1           4.0670     2.5350    -0.8910 f          1 8RW      -0.109000
     30 F2           5.9160     3.0110    -1.9260 f          1 8RW      -0.109000
     31 F3           4.8790     1.1600    -2.3890 f          1 8RW      -0.109000
     32 C22          4.2470    -0.3210     0.2240 ca         1 8RW      -0.128000
     33 H1          -1.1130    -5.1980     0.5840 hc         1 8RW       0.059700
     34 H2          -0.9590    -5.5860    -1.1340 hc         1 8RW       0.059700
     35 H3          -8.4010     1.4260    -1.7850 ha         1 8RW       0.114000
     36 H4          -1.6780    -3.3130    -1.8060 h1         1 8RW       0.050700
     37 H5          -2.7420    -3.6790    -0.4160 h1         1 8RW       0.050700
     38 H6          -2.5190     1.5170     1.3620 h4         1 8RW       0.244000
     39 H7          -5.2390    -1.5360    -1.6980 ha         1 8RW       0.103000
     40 H8          -7.4960    -0.7890    -2.4880 ha         1 8RW       0.112000
     41 H9          -3.1670    -1.7400    -0.7200 hn         1 8RW       0.324500
     42 H10          1.3200    -4.8640     0.0840 hc         1 8RW       0.065700
     43 H11          0.9300    -3.9800    -1.3950 hc         1 8RW       0.065700
     44 H12          0.4200    -3.0670     1.5280 h1         1 8RW       0.065700
     45 H13         -2.6980     3.2600     2.1950 hn         1 8RW       0.324500
     46 H14         -3.5490     4.7480     2.5410 hn         1 8RW       0.324500
     47 H15         -7.0740     2.9170    -0.2920 ha         1 8RW       0.145000
     48 H16          2.4400    -2.7850     1.6030 hn         1 8RW       0.154000
     49 H17          4.4680    -2.7770     2.5960 ha         1 8RW       0.116000
     50 H18          6.7130    -1.7600     2.8800 ha         1 8RW       0.121000
     51 H19          7.3920     0.1750     1.4710 ha         1 8RW       0.137000
     52 H20          3.5610     0.0830    -0.5080 ha         1 8RW       0.168000
     53 O1           1.4810    -1.0560    -0.8710 o          1 8RW      -0.560100
     54 C9          -4.5520     3.4560     1.3240 c          1 8RW       0.669100
@<TRIPOS>BOND
     1     1     3 1   
     2     1    13 1   
     3     1    33 1   
     4     1    34 1   
     5     2    10 ar  
     6     2    19 ar  
     7     2    35 1   
     8     3    11 1   
     9     3    36 1   
    10     3    37 1   
    11     4    11 1   
    12     4    12 1   
    13     4    20 2   
    14     5     6 1   
    15     5     8 ar  
    16     5     9 ar  
    17     6     7 2   
    18     6    12 1   
    19     7    14 1   
    20     7    38 1   
    21     8    14 1   
    22     8    19 ar  
    23     9    10 ar  
    24     9    39 1   
    25    10    40 1   
    26    11    16 1   
    27    12    41 1   
    28    13    16 1   
    29    13    42 1   
    30    13    43 1   
    31    14    54 1   
    32    15    16 1   
    33    15    21 1   
    34    15    53 2   
    35    16    44 1   
    36    17    45 1   
    37    17    46 1   
    38    17    54 1   
    39    18    54 2   
    40    19    47 1   
    41    21    22 1   
    42    21    48 1   
    43    22    23 ar  
    44    22    32 ar  
    45    23    24 ar  
    46    23    49 1   
    47    24    25 ar  
    48    24    50 1   
    49    25    26 ar  
    50    25    51 1   
    51    26    27 1   
    52    26    32 ar  
    53    27    28 1   
    54    28    29 1   
    55    28    30 1   
    56    28    31 1   
    57    32    52 1   
@<TRIPOS>SUBSTRUCTURE
     1 8RW         1 TEMP              0 ****  ****    0 ROOT
