@<TRIPOS>MOLECULE
8RW
   54    57     1     0     0
SMALL
bcc


@<TRIPOS>ATOM
      1 C4          -0.8870    -5.0310    -0.5300 c5         1 8RW      -0.091400
      2 C14         -6.9710     1.4430    -1.4950 ca         1 8RW      -0.113000
      3 C5          -1.6790    -3.7670    -0.8380 c5         1 8RW       0.108000
      4 C6          -1.5220    -1.5680     0.3760 c          1 8RW       0.807100
      5 C11         -4.6350     0.2890    -0.5840 ca         1 8RW      -0.125800
      6 C7          -3.3970    -0.0360     0.0740 cc         1 8RW       0.043400
      7 C8          -3.1170     0.9760     0.9340 cd         1 8RW      -0.101400
      8 C10         -5.0710     1.5220    -0.0690 ca         1 8RW       0.042600
      9 C12         -5.3830    -0.3740    -1.5570 ca         1 8RW      -0.092000
     10 C13         -6.5510     0.2090    -2.0060 ca         1 8RW      -0.149000
     11 N1          -1.0300    -2.7700     0.0010 n          1 8RW      -0.491800
     12 N2          -2.7160    -1.2130    -0.1870 ns         1 8RW      -0.465100
     13 C3           0.5180    -4.5050    -0.2610 c5         1 8RW      -0.088400
     14 N3          -4.1280     1.9380     0.8560 n          1 8RW      -0.257200
     15 C1           1.3390    -2.1570     0.1150 c          1 8RW       0.677100
     16 C2           0.2710    -3.1810     0.4790 c5         1 8RW       0.049700
     17 N4          -3.0300     3.4790     2.1890 nt         1 8RW      -0.664000
     18 O2          -5.2170     3.7590     1.6830 o          1 8RW      -0.601100
     19 C15         -6.2460     2.1160    -0.5270 ca         1 8RW      -0.117000
     20 O3          -0.9310    -0.8460     1.1710 o          1 8RW      -0.643100
     21 N5           2.3090    -2.0300     1.0520 ns         1 8RW      -0.464100
     22 C16          3.4630    -1.2470     1.0240 ca         1 8RW       0.090600
     23 C17          4.2300    -1.2070     2.1910 ca         1 8RW      -0.179000
     24 C18          5.3970    -0.4670     2.2400 ca         1 8RW      -0.092000
     25 C19          5.8280     0.2570     1.1370 ca         1 8RW      -0.148000
     26 C20          5.0540     0.2070    -0.0060 ca         1 8RW       0.118100
     27 O4           5.4970     0.8680    -1.1490 os         1 8RW      -0.381900
     28 C21          5.1030     2.1330    -1.3350 c3         1 8RW       0.855700
     29 F1           5.4870     2.9460    -0.3500 f          1 8RW      -0.230300
     30 F2           5.6480     2.5600    -2.4640 f          1 8RW      -0.230300
     31 F3           3.7780     2.2540    -1.4390 f          1 8RW      -0.230300
     32 C22          3.8830    -0.5260    -0.0940 ca         1 8RW      -0.146000
     33 H1          -1.2910    -5.5150     0.3610 hc         1 8RW       0.059700
     34 H2          -0.9200    -5.7470    -1.3480 hc         1 8RW       0.059700
     35 H3          -7.8880     1.8840    -1.8620 ha         1 8RW       0.132000
     36 H4          -1.6120    -3.5000    -1.8970 h1         1 8RW       0.050700
     37 H5          -2.7340    -3.8820    -0.5780 h1         1 8RW       0.050700
     38 H6          -2.3090     1.0740     1.6330 h4         1 8RW       0.194000
     39 H7          -5.0650    -1.3270    -1.9620 ha         1 8RW       0.121000
     40 H8          -7.1470    -0.2890    -2.7590 ha         1 8RW       0.130000
     41 H9          -3.1220    -1.8080    -0.8900 hn         1 8RW       0.324500
     42 H10          1.1310    -5.1860     0.3260 hc         1 8RW       0.065700
     43 H11          1.0320    -4.3200    -1.2070 hc         1 8RW       0.065700
     44 H12          0.2520    -3.3470     1.5620 h1         1 8RW       0.065700
     45 H13         -2.1350     3.1360     1.8880 hn         1 8RW       0.324500
     46 H14         -3.0200     4.3570     2.6810 hn         1 8RW       0.324500
     47 H15         -6.5920     3.0630    -0.1460 ha         1 8RW       0.163000
     48 H16          2.1680    -2.5430     1.9100 hn         1 8RW       0.320500
     49 H17          3.9130    -1.7670     3.0620 ha         1 8RW       0.134000
     50 H18          5.9790    -0.4520     3.1510 ha         1 8RW       0.139000
     51 H19          6.7470     0.8270     1.1670 ha         1 8RW       0.155000
     52 H20          3.3270    -0.5470    -1.0180 ha         1 8RW       0.186000
     53 O1           1.3260    -1.5740    -0.9510 o          1 8RW      -0.560100
     54 C9          -4.1820     3.1270     1.5890 c          1 8RW       0.803100
@<TRIPOS>BOND
     1     1     3 1   
     2     1    13 1   
     3     1    33 1   
     4     1    34 1   
     5     2    10 ar  
     6     2    19 ar  
     7     2    35 1   
     8     3    11 1   
     9     3    36 1   
    10     3    37 1   
    11     4    11 1   
    12     4    12 1   
    13     4    20 2   
    14     5     6 1   
    15     5     8 ar  
    16     5     9 ar  
    17     6     7 2   
    18     6    12 1   
    19     7    14 1   
    20     7    38 1   
    21     8    14 1   
    22     8    19 ar  
    23     9    10 ar  
    24     9    39 1   
    25    10    40 1   
    26    11    16 1   
    27    12    41 1   
    28    13    16 1   
    29    13    42 1   
    30    13    43 1   
    31    14    54 1   
    32    15    16 1   
    33    15    21 1   
    34    15    53 2   
    35    16    44 1   
    36    17    45 1   
    37    17    46 1   
    38    17    54 1   
    39    18    54 2   
    40    19    47 1   
    41    21    22 1   
    42    21    48 1   
    43    22    23 ar  
    44    22    32 ar  
    45    23    24 ar  
    46    23    49 1   
    47    24    25 ar  
    48    24    50 1   
    49    25    26 ar  
    50    25    51 1   
    51    26    27 1   
    52    26    32 ar  
    53    27    28 1   
    54    28    29 1   
    55    28    30 1   
    56    28    31 1   
    57    32    52 1   
@<TRIPOS>SUBSTRUCTURE
     1 8RW         1 TEMP              0 ****  ****    0 ROOT
