@<TRIPOS>MOLECULE
8RX
   33    33     1     0     0
SMALL
No Charge or Current Charge


@<TRIPOS>ATOM
      1 C10        -17.2300    14.9000    -3.9200 c3         1 8RX       0.103000
      2 C13        -19.1530    17.7120    -5.7730 c1         1 8RX      -0.146100
      3 C02        -17.4540    13.0060     2.5650 c2         1 8RX       0.739100
      4 C05        -19.3480    13.5170     1.1090 c5         1 8RX       0.231800
      5 C06        -19.7040    12.9160    -0.2710 c5         1 8RX      -0.088400
      6 C07        -18.3040    12.7570    -0.9550 c5         1 8RX      -0.166700
      7 C08        -17.8580    14.0830    -1.6230 c          1 8RX       0.597100
      8 C11        -18.4180    15.7870    -4.3470 c3         1 8RX      -0.099400
      9 C12        -18.0170    16.8720    -5.3700 c3         1 8RX       0.009700
     10 C14        -20.1050    18.3900    -6.0860 c1         1 8RX      -0.242000
     11 C16        -17.3300    12.4220     0.2150 c5         1 8RX       0.242800
     12 N03        -17.6480    14.0580     3.2470 n2         1 8RX      -0.831100
     13 N04        -18.1500    12.7060     1.4170 nh         1 8RX      -0.779600
     14 N09        -17.6310    13.8650    -2.9650 ns         1 8RX      -0.507900
     15 O15        -17.7150    15.1750    -1.0920 o          1 8RX      -0.583100
     16 H102       -16.4460    15.5220    -3.4670 h1         1 8RX       0.054700
     17 H101       -16.8030    14.4100    -4.8050 h1         1 8RX       0.054700
     18 H051       -20.1550    13.3810     1.8420 h1         1 8RX       0.064200
     19 H052       -19.1170    14.5900     1.0390 h1         1 8RX       0.064200
     20 H062       -20.1900    11.9410    -0.1480 hc         1 8RX       0.057700
     21 H061       -20.3930    13.5500    -0.8400 hc         1 8RX       0.057700
     22 H071       -18.3210    11.9480    -1.6940 hc         1 8RX       0.068700
     23 H111       -19.2010    15.1510    -4.7780 hc         1 8RX       0.055700
     24 H112       -18.8470    16.2680    -3.4590 hc         1 8RX       0.055700
     25 H122       -17.2360    17.5130    -4.9420 hc         1 8RX       0.056700
     26 H121       -17.5910    16.3980    -6.2630 hc         1 8RX       0.056700
     27 H141       -20.9560    18.9860    -6.3520 ha         1 8RX       0.255000
     28 H161       -17.0160    11.3690     0.1880 h1         1 8RX       0.055200
     29 H162       -16.4220    13.0430     0.1760 h1         1 8RX       0.055200
     30 H031       -17.0430    13.9890     4.0740 hn         1 8RX       0.411400
     31 H091       -17.7800    12.9240    -3.3090 hn         1 8RX       0.310500
     32 S1         -16.3920    11.7170     3.1230 sh         1 8RX      -0.434000
     33 H1         -16.9030    10.8080     2.2650 hs         1 8RX       0.219800
@<TRIPOS>BOND
     1     1     8 1   
     2     1    14 1   
     3     1    16 1   
     4     1    17 1   
     5     2     9 1   
     6     2    10 3   
     7     3    12 2   
     8     3    13 1   
     9     3    32 1   
    10     4     5 1   
    11     4    13 1   
    12     4    18 1   
    13     4    19 1   
    14     5     6 1   
    15     5    20 1   
    16     5    21 1   
    17     6     7 1   
    18     6    11 1   
    19     6    22 1   
    20     7    14 1   
    21     7    15 2   
    22     8     9 1   
    23     8    23 1   
    24     8    24 1   
    25     9    25 1   
    26     9    26 1   
    27    10    27 1   
    28    11    13 1   
    29    11    28 1   
    30    11    29 1   
    31    12    30 1   
    32    14    31 1   
    33    32    33 1   
@<TRIPOS>SUBSTRUCTURE
     1 8RX         1 TEMP              0 ****  ****    0 ROOT
