@<TRIPOS>MOLECULE
8RX
   33    33     1     0     0
SMALL
abcg2


@<TRIPOS>ATOM
      1 C10        -17.3970    14.6460    -4.0390 c3         1 8RX       0.103000
      2 C13        -19.0870    17.8720    -5.1950 c1         1 8RX      -0.146100
      3 C02        -17.6520    13.5410     2.3990 c2         1 8RX       0.739100
      4 C05        -19.3530    13.5640     0.6700 c5         1 8RX       0.231800
      5 C06        -19.5350    12.7310    -0.5900 c5         1 8RX      -0.088400
      6 C07        -18.0950    12.4370    -1.0400 c5         1 8RX      -0.166700
      7 C08        -17.5390    13.6200    -1.8140 c          1 8RX       0.597100
      8 C11        -18.4780    15.7180    -4.1130 c3         1 8RX      -0.099400
      9 C12        -18.0700    16.8370    -5.0750 c3         1 8RX       0.009700
     10 C14        -19.9390    18.7160    -5.2940 c1         1 8RX      -0.242000
     11 C16        -17.3690    12.2300     0.2850 c5         1 8RX       0.242800
     12 N03        -18.2480    14.4900     3.0080 n2         1 8RX      -0.831100
     13 N04        -18.1130    13.0510     1.2310 nh         1 8RX      -0.779600
     14 N09        -17.7340    13.5640    -3.1420 ns         1 8RX      -0.507900
     15 O15        -16.9840    14.5620    -1.2630 o          1 8RX      -0.583100
     16 H102       -16.4510    15.0890    -3.7230 h1         1 8RX       0.054700
     17 H101       -17.2300    14.2160    -5.0270 h1         1 8RX       0.054700
     18 H051       -20.1790    13.4430     1.3730 h1         1 8RX       0.064200
     19 H052       -19.2700    14.6310     0.4460 h1         1 8RX       0.064200
     20 H062       -20.0340    11.7890    -0.3550 hc         1 8RX       0.057700
     21 H061       -20.1310    13.2410    -1.3470 hc         1 8RX       0.057700
     22 H071       -18.0520    11.5350    -1.6530 hc         1 8RX       0.068700
     23 H111       -19.4170    15.2710    -4.4450 hc         1 8RX       0.055700
     24 H112       -18.6520    16.1360    -3.1200 hc         1 8RX       0.055700
     25 H122       -17.1340    17.2920    -4.7380 hc         1 8RX       0.056700
     26 H121       -17.8670    16.4200    -6.0660 hc         1 8RX       0.056700
     27 H141       -20.6880    19.4690    -5.3810 ha         1 8RX       0.255000
     28 H161       -17.4090    11.1720     0.5620 h1         1 8RX       0.055200
     29 H162       -16.3200    12.5210     0.2350 h1         1 8RX       0.055200
     30 H031       -17.8310    14.6860     3.9090 hn         1 8RX       0.411400
     31 H091       -18.2250    12.7730    -3.5260 hn         1 8RX       0.310500
     32 S1         -16.1430    12.8290     3.0550 sh         1 8RX      -0.434000
     33 H1         -16.2480    11.5850     2.5720 hs         1 8RX       0.219800
@<TRIPOS>BOND
     1     1     8 1   
     2     1    14 1   
     3     1    16 1   
     4     1    17 1   
     5     2     9 1   
     6     2    10 3   
     7     3    12 2   
     8     3    13 1   
     9     3    32 1   
    10     4     5 1   
    11     4    13 1   
    12     4    18 1   
    13     4    19 1   
    14     5     6 1   
    15     5    20 1   
    16     5    21 1   
    17     6     7 1   
    18     6    11 1   
    19     6    22 1   
    20     7    14 1   
    21     7    15 2   
    22     8     9 1   
    23     8    23 1   
    24     8    24 1   
    25     9    25 1   
    26     9    26 1   
    27    10    27 1   
    28    11    13 1   
    29    11    28 1   
    30    11    29 1   
    31    12    30 1   
    32    14    31 1   
    33    32    33 1   
@<TRIPOS>SUBSTRUCTURE
     1 8RX         1 TEMP              0 ****  ****    0 ROOT
