@<TRIPOS>MOLECULE
8RY
   17    17     1     0     0
SMALL
No Charge or Current Charge


@<TRIPOS>ATOM
      1 N1          -2.0380     0.6520    -0.0020 ns         1 8RY      -0.494900
      2 N3           1.1150    -1.2570     0.0280 nb         1 8RY      -0.151000
      3 C4           2.0260     1.3430    -0.0090 ca         1 8RY       0.107900
      4 C5           2.9520     0.2880     0.0070 ca         1 8RY      -0.206000
      5 C6           2.4420    -1.0200     0.0250 ca         1 8RY       0.107900
      6 C1          -3.5010     0.5970    -0.0020 c3         1 8RY       0.097300
      7 C2          -1.2110    -0.4570     0.0150 c          1 8RY       0.511600
      8 C3           0.2860    -0.1810     0.0120 ca         1 8RY       0.075500
      9 N2           0.6980     1.1140    -0.0070 nb         1 8RY      -0.151000
     10 O1          -1.6800    -1.5890     0.0310 o          1 8RY      -0.563100
     11 H1          -1.5830     1.5600    -0.0150 hn         1 8RY       0.341500
     12 H3           4.0220     0.4760     0.0050 ha         1 8RY       0.138000
     13 H4           3.1000    -1.8870     0.0380 h4         1 8RY       0.030100
     14 H5          -3.9070     1.6160    -0.0170 h1         1 8RY       0.041367
     15 H6          -3.8510     0.0560    -0.8910 h1         1 8RY       0.041367
     16 H7          -3.8520     0.0810     0.9010 h1         1 8RY       0.041367
     17 H2           2.3490     2.3830    -0.0240 h4         1 8RY       0.030100
@<TRIPOS>BOND
     1     1     6 1   
     2     1     7 1   
     3     1    11 1   
     4     2     5 ar  
     5     2     8 ar  
     6     3     4 ar  
     7     3     9 ar  
     8     3    17 1   
     9     4     5 ar  
    10     4    12 1   
    11     5    13 1   
    12     6    14 1   
    13     6    15 1   
    14     6    16 1   
    15     7     8 1   
    16     7    10 2   
    17     8     9 ar  
@<TRIPOS>SUBSTRUCTURE
     1 8RY         1 TEMP              0 ****  ****    0 ROOT
