@<TRIPOS>MOLECULE
8RY
   17    17     1     0     0
SMALL
bcc


@<TRIPOS>ATOM
      1 N1          -1.9740     0.6450    -0.0020 ns         1 8RY      -0.561900
      2 N3           1.0690    -1.2300     0.0140 nb         1 8RY      -0.677000
      3 C4           1.9700     1.3270     0.0050 ca         1 8RY       0.436200
      4 C5           2.8900     0.2930     0.0070 ca         1 8RY      -0.354600
      5 C6           2.3740    -0.9930     0.0110 ca         1 8RY       0.436200
      6 C1          -3.4150     0.5840    -0.0020 c3         1 8RY       0.097300
      7 C2          -1.2110    -0.4480     0.0140 c          1 8RY       0.578600
      8 C3           0.2770    -0.1720     0.0110 ca         1 8RY       0.601500
      9 N2           0.6640     1.0950     0.0070 nb         1 8RY      -0.677000
     10 O1          -1.6410    -1.5900     0.0290 o          1 8RY      -0.563100
     11 H1          -1.5160     1.5430    -0.0060 hn         1 8RY       0.341500
     12 H3           3.9540     0.4770     0.0060 ha         1 8RY       0.156000
     13 H4           3.0300    -1.8550     0.0110 h4         1 8RY       0.030100
     14 H5          -3.8020     1.5950    -0.0800 h1         1 8RY       0.041367
     15 H6          -3.7890     0.0050    -0.8470 h1         1 8RY       0.041367
     16 H7          -3.8000     0.1370     0.9150 h1         1 8RY       0.041367
     17 H2           2.2860     2.3630     0.0020 h4         1 8RY       0.030100
@<TRIPOS>BOND
     1     1     6 1   
     2     1     7 1   
     3     1    11 1   
     4     2     5 ar  
     5     2     8 ar  
     6     3     4 ar  
     7     3     9 ar  
     8     3    17 1   
     9     4     5 ar  
    10     4    12 1   
    11     5    13 1   
    12     6    14 1   
    13     6    15 1   
    14     6    16 1   
    15     7     8 1   
    16     7    10 2   
    17     8     9 ar  
@<TRIPOS>SUBSTRUCTURE
     1 8RY         1 TEMP              0 ****  ****    0 ROOT
