@<TRIPOS>MOLECULE
8RZ
   55    59     1     0     0
SMALL
bcc


@<TRIPOS>ATOM
      1 C4           1.0190    -4.5120     0.9680 cx         1 8RZ      -0.120700
      2 C14          7.0690     0.3090     1.3700 ca         1 8RZ      -0.149000
      3 C5           1.8290    -3.2680     1.0390 cx         1 8RZ       0.031700
      4 C6           2.2650    -4.3900     0.1400 cx         1 8RZ      -0.148400
      5 C11          5.3330     1.7980    -0.1920 ca         1 8RZ       0.041600
      6 C8           3.5710     0.3400    -0.0780 cc         1 8RZ       0.039400
      7 C9           3.1950     1.4100    -0.8230 cd         1 8RZ      -0.100400
      8 C12          4.9280     0.5640     0.3450 ca         1 8RZ      -0.124800
      9 C13          5.8020    -0.1870     1.1300 ca         1 8RZ      -0.092000
     10 N1           1.0620    -2.2280     0.4120 n          1 8RZ      -0.435800
     11 N2           2.8750    -0.8090     0.2630 ns         1 8RZ      -0.462100
     12 C3          -0.3260    -4.1520     0.3780 c5         1 8RZ      -0.056400
     13 N3           4.2580     2.3140    -0.8970 n          1 8RZ      -0.256200
     14 C1          -1.3360    -1.8470     0.1060 c          1 8RZ       0.686100
     15 C2          -0.1440    -2.7400    -0.2150 c5         1 8RZ       0.031700
     16 N4           3.0230     3.9770    -1.9270 nt         1 8RZ      -0.662000
     17 O2           5.2790     4.1190    -1.8350 o          1 8RZ      -0.600100
     18 C15          7.4620     1.5410     0.8350 ca         1 8RZ      -0.113000
     19 C16          6.6100     2.3010     0.0530 ca         1 8RZ      -0.117000
     20 O3           0.9120    -0.3080    -0.7650 o          1 8RZ      -0.635100
     21 N5          -2.1910    -1.6900    -0.9330 ns         1 8RZ      -0.465100
     22 C17         -3.3930    -0.9840    -0.9820 ca         1 8RZ       0.090600
     23 C18         -3.9930    -0.8380    -2.2360 ca         1 8RZ      -0.179000
     24 C19         -5.1840    -0.1510    -2.3690 ca         1 8RZ      -0.091000
     25 C20         -5.8140     0.4050    -1.2640 ca         1 8RZ      -0.150000
     26 C21         -5.2110     0.2410    -0.0320 ca         1 8RZ       0.119100
     27 O4          -5.7810     0.8330     1.0910 os         1 8RZ      -0.379900
     28 C22         -6.7100     0.1430     1.7630 c3         1 8RZ       0.855700
     29 F1          -7.0480     0.8550     2.8270 f          1 8RZ      -0.230633
     30 F2          -7.8110    -0.0800     1.0430 f          1 8RZ      -0.230633
     31 F3          -6.2730    -1.0490     2.1740 f          1 8RZ      -0.230633
     32 C23         -4.0160    -0.4370     0.1390 ca         1 8RZ      -0.145000
     33 H1           1.0310    -5.2060     1.7980 hc         1 8RZ       0.101700
     34 H2           7.7620    -0.2560     1.9780 ha         1 8RZ       0.131000
     35 H3           2.3800    -2.9990     1.9330 h1         1 8RZ       0.113700
     36 H4           3.1180    -4.9800     0.4520 hc         1 8RZ       0.083200
     37 H5           2.1870    -4.2440    -0.9310 hc         1 8RZ       0.083200
     38 H6           2.2740     1.5900    -1.3440 h4         1 8RZ       0.194000
     39 H7           5.5050    -1.1400     1.5520 ha         1 8RZ       0.122000
     40 H8           3.3970    -1.5120     0.7590 hn         1 8RZ       0.328500
     41 H9          -0.6730    -4.8500    -0.3830 hc         1 8RZ       0.069700
     42 H10         -1.0630    -4.1440     1.1820 hc         1 8RZ       0.069700
     43 H11         -0.0060    -2.8100    -1.2990 h1         1 8RZ       0.056700
     44 H12          2.1850     3.6800    -1.4560 hn         1 8RZ       0.323500
     45 H13          2.9760     4.8800    -2.3690 hn         1 8RZ       0.323500
     46 H14          8.4590     1.9110     1.0340 ha         1 8RZ       0.133000
     47 H15          6.9380     3.2450    -0.3520 ha         1 8RZ       0.164000
     48 H16         -1.8950    -2.0820    -1.8150 hn         1 8RZ       0.319500
     49 H17         -3.5150    -1.2590    -3.1120 ha         1 8RZ       0.134000
     50 H18         -5.6280    -0.0400    -3.3500 ha         1 8RZ       0.139000
     51 H19         -6.7340     0.9630    -1.3690 ha         1 8RZ       0.155000
     52 H20         -3.5810    -0.5200     1.1210 ha         1 8RZ       0.186000
     53 C7           1.5810    -1.0690    -0.0800 c          1 8RZ       0.794100
     54 O1          -1.5020    -1.3840     1.2160 o          1 8RZ      -0.549100
     55 C10          4.2440     3.5360    -1.5730 c          1 8RZ       0.802100
@<TRIPOS>BOND
     1     1     3 1   
     2     1     4 1   
     3     1    12 1   
     4     1    33 1   
     5     2     9 ar  
     6     2    18 ar  
     7     2    34 1   
     8     3     4 1   
     9     3    10 1   
    10     3    35 1   
    11     4    36 1   
    12     4    37 1   
    13     5     8 ar  
    14     5    13 1   
    15     5    19 ar  
    16     6     7 2   
    17     6     8 1   
    18     6    11 1   
    19     7    13 1   
    20     7    38 1   
    21     8     9 ar  
    22     9    39 1   
    23    10    15 1   
    24    10    53 1   
    25    11    40 1   
    26    11    53 1   
    27    12    15 1   
    28    12    41 1   
    29    12    42 1   
    30    13    55 1   
    31    14    15 1   
    32    14    21 1   
    33    14    54 2   
    34    15    43 1   
    35    16    44 1   
    36    16    45 1   
    37    16    55 1   
    38    17    55 2   
    39    18    19 ar  
    40    18    46 1   
    41    19    47 1   
    42    20    53 2   
    43    21    22 1   
    44    21    48 1   
    45    22    23 ar  
    46    22    32 ar  
    47    23    24 ar  
    48    23    49 1   
    49    24    25 ar  
    50    24    50 1   
    51    25    26 ar  
    52    25    51 1   
    53    26    27 1   
    54    26    32 ar  
    55    27    28 1   
    56    28    29 1   
    57    28    30 1   
    58    28    31 1   
    59    32    52 1   
@<TRIPOS>SUBSTRUCTURE
     1 8RZ         1 TEMP              0 ****  ****    0 ROOT
