@<TRIPOS>MOLECULE
8RZ
   55    59     1     0     0
SMALL
No Charge or Current Charge


@<TRIPOS>ATOM
      1 C4           0.9420    -4.3010     0.6840 cx         1 8RZ      -0.120700
      2 C14          7.1820     0.1600     1.5750 ca         1 8RZ      -0.131000
      3 C5           1.8370    -3.1060     0.6060 cx         1 8RZ       0.031700
      4 C6           2.3580    -4.4500     0.1740 cx         1 8RZ      -0.148400
      5 C11          5.6260     1.8970     0.0230 ca         1 8RZ      -0.051000
      6 C8           3.8500     0.4870    -0.2160 cc         1 8RZ       0.039400
      7 C9           3.5950     1.6700    -0.8760 cd         1 8RZ      -0.150400
      8 C12          5.1570     0.6390     0.3600 ca         1 8RZ      -0.124800
      9 C13          5.9090    -0.2550     1.1350 ca         1 8RZ      -0.074000
     10 N1           1.2630    -2.1460    -0.2930 n          1 8RZ      -0.368800
     11 N2           3.0630    -0.6470    -0.0890 ns         1 8RZ      -0.395100
     12 C3          -0.1370    -4.0820    -0.4120 c5         1 8RZ      -0.056400
     13 N3           4.6520     2.5980    -0.7740 n          1 8RZ      -0.096600
     14 C1          -1.2550    -1.7880    -0.0940 c          1 8RZ       0.619100
     15 C2          -0.0780    -2.5400    -0.7940 c5         1 8RZ       0.031700
     16 N4           3.6550     4.3260    -2.0480 nt         1 8RZ      -0.595000
     17 O2           5.6770     4.6490    -1.1960 o          1 8RZ      -0.600100
     18 C15          7.6720     1.4420     1.2370 ca         1 8RZ      -0.095000
     19 C16          6.8950     2.3240     0.4550 ca         1 8RZ      -0.099000
     20 O3           1.2130    -0.0850    -1.3130 o          1 8RZ      -0.635100
     21 N5          -2.3880    -1.9250    -0.8880 ns         1 8RZ      -0.139000
     22 C17         -3.7210    -1.4550    -0.7370 ca         1 8RZ      -0.002000
     23 C18         -4.6360    -1.7550    -1.7620 ca         1 8RZ      -0.161000
     24 C19         -5.9700    -1.3250    -1.6800 ca         1 8RZ      -0.073000
     25 C20         -6.4060    -0.5870    -0.5680 ca         1 8RZ      -0.132000
     26 C21         -5.5010    -0.2780     0.4710 ca         1 8RZ       0.119100
     27 O4          -5.8520     0.4410     1.5990 os         1 8RZ      -0.403100
     28 C22         -7.1750     0.9590     1.8480 c3         1 8RZ       0.515000
     29 F1          -7.2130     1.6170     3.0280 f          1 8RZ      -0.109333
     30 F2          -7.5660     1.8380     0.8970 f          1 8RZ      -0.109333
     31 F3          -8.1030    -0.0230     1.9170 f          1 8RZ      -0.109333
     32 C23         -4.1680    -0.7140     0.3800 ca         1 8RZ      -0.127000
     33 H1           0.6810    -4.6870     1.6670 hc         1 8RZ       0.101700
     34 H2           7.7910    -0.5100     2.1780 ha         1 8RZ       0.113000
     35 H3           2.1580    -2.6470     1.5440 h1         1 8RZ       0.113700
     36 H4           3.0800    -4.9410     0.8210 hc         1 8RZ       0.083200
     37 H5           2.5170    -4.6140    -0.8890 hc         1 8RZ       0.083200
     38 H6           2.7090     1.9450    -1.4360 h4         1 8RZ       0.244000
     39 H7           5.5280    -1.2410     1.3910 ha         1 8RZ       0.104000
     40 H8           3.4390    -1.4200     0.4410 hn         1 8RZ       0.328500
     41 H9           0.0740    -4.7010    -1.2920 hc         1 8RZ       0.069700
     42 H10         -1.1330    -4.3870    -0.0680 hc         1 8RZ       0.069700
     43 H11         -0.1560    -2.3940    -1.8800 h1         1 8RZ       0.056700
     44 H12          2.8520     3.7330    -2.1760 hn         1 8RZ       0.323500
     45 H13          3.6780     5.2490    -2.4530 hn         1 8RZ       0.323500
     46 H14          8.6560     1.7530     1.5820 ha         1 8RZ       0.115000
     47 H15          7.2820     3.3070     0.2020 ha         1 8RZ       0.146000
     48 H16         -2.2410    -2.4650    -1.7310 hn         1 8RZ       0.153000
     49 H17         -4.3130    -2.3260    -2.6300 ha         1 8RZ       0.116000
     50 H18         -6.6670    -1.5630    -2.4810 ha         1 8RZ       0.121000
     51 H19         -7.4440    -0.2700    -0.5360 ha         1 8RZ       0.137000
     52 H20         -3.4990    -0.4620     1.1960 ha         1 8RZ       0.168000
     53 C7           1.8120    -0.8890    -0.6110 c          1 8RZ       0.660100
     54 O1          -1.2000    -1.1650     0.9620 o          1 8RZ      -0.549100
     55 C10          4.7200     3.9030    -1.3310 c          1 8RZ       0.668100
@<TRIPOS>BOND
     1     1     3 1   
     2     1     4 1   
     3     1    12 1   
     4     1    33 1   
     5     2     9 ar  
     6     2    18 ar  
     7     2    34 1   
     8     3     4 1   
     9     3    10 1   
    10     3    35 1   
    11     4    36 1   
    12     4    37 1   
    13     5     8 ar  
    14     5    13 1   
    15     5    19 ar  
    16     6     7 2   
    17     6     8 1   
    18     6    11 1   
    19     7    13 1   
    20     7    38 1   
    21     8     9 ar  
    22     9    39 1   
    23    10    15 1   
    24    10    53 1   
    25    11    40 1   
    26    11    53 1   
    27    12    15 1   
    28    12    41 1   
    29    12    42 1   
    30    13    55 1   
    31    14    15 1   
    32    14    21 1   
    33    14    54 2   
    34    15    43 1   
    35    16    44 1   
    36    16    45 1   
    37    16    55 1   
    38    17    55 2   
    39    18    19 ar  
    40    18    46 1   
    41    19    47 1   
    42    20    53 2   
    43    21    22 1   
    44    21    48 1   
    45    22    23 ar  
    46    22    32 ar  
    47    23    24 ar  
    48    23    49 1   
    49    24    25 ar  
    50    24    50 1   
    51    25    26 ar  
    52    25    51 1   
    53    26    27 1   
    54    26    32 ar  
    55    27    28 1   
    56    28    29 1   
    57    28    30 1   
    58    28    31 1   
    59    32    52 1   
@<TRIPOS>SUBSTRUCTURE
     1 8RZ         1 TEMP              0 ****  ****    0 ROOT
