@<TRIPOS>MOLECULE
8S0
   22    22     1     0     0
SMALL
No Charge or Current Charge


@<TRIPOS>ATOM
      1 C1           0.6760    -1.5240     0.1100 c          1 8S0       0.638100
      2 C2           1.6660    -0.3150     0.2800 c6         1 8S0       0.036300
      3 C3           1.1010     1.0140    -0.2710 c6         1 8S0       0.143300
      4 C4          -0.3380     1.2310     0.2460 c6         1 8S0       0.142300
      5 C5          -1.2100     0.0530    -0.2690 c6         1 8S0       0.193300
      6 C6          -2.6890     0.1380     0.2300 c3         1 8S0       0.166600
      7 O1           1.0660    -2.6700     0.2890 o          1 8S0      -0.488000
      8 O2           2.9820    -0.5730    -0.2960 oh         1 8S0      -0.704000
      9 O3           1.9530     2.1060     0.1150 oh         1 8S0      -0.664000
     10 O4          -0.8220     2.5080    -0.2090 oh         1 8S0      -0.712000
     11 O5          -0.6710    -1.2350     0.1320 os         1 8S0      -0.436100
     12 O6          -3.5010    -0.9710    -0.2080 oh         1 8S0      -0.642000
     13 H1           1.7580    -0.2010     1.3710 h1         1 8S0       0.063700
     14 H2           1.0670     0.9400    -1.3700 h1         1 8S0       0.066700
     15 H3          -0.3270     1.2070     1.3460 h1         1 8S0       0.051700
     16 H4          -1.2250     0.0890    -1.3680 h1         1 8S0       0.086700
     17 H5          -2.6780     0.1840     1.3280 h1         1 8S0       0.037200
     18 H6          -3.1230     1.0800    -0.1300 h1         1 8S0       0.037200
     19 H7           3.2620    -1.4770    -0.0040 ho         1 8S0       0.532000
     20 H8           2.8710     1.7610     0.0040 ho         1 8S0       0.472000
     21 H9          -0.0330     3.1040    -0.1570 ho         1 8S0       0.531000
     22 H10         -4.3920    -0.8500     0.1910 ho         1 8S0       0.447000
@<TRIPOS>BOND
     1     1     2 1   
     2     1     7 2   
     3     1    11 1   
     4     2     3 1   
     5     2     8 1   
     6     2    13 1   
     7     3     4 1   
     8     3     9 1   
     9     3    14 1   
    10     4     5 1   
    11     4    10 1   
    12     4    15 1   
    13     5     6 1   
    14     5    11 1   
    15     5    16 1   
    16     6    12 1   
    17     6    17 1   
    18     6    18 1   
    19     8    19 1   
    20     9    20 1   
    21    10    21 1   
    22    12    22 1   
@<TRIPOS>SUBSTRUCTURE
     1 8S0         1 TEMP              0 ****  ****    0 ROOT
