@<TRIPOS>MOLECULE
8S0
   22    22     1     0     0
SMALL
abcg2


@<TRIPOS>ATOM
      1 C1           0.6310    -1.5030     0.0560 c          1 8S0       0.638100
      2 C2           1.5950    -0.3610     0.3470 c6         1 8S0       0.036300
      3 C3           1.1330     0.9440    -0.2790 c6         1 8S0       0.143300
      4 C4          -0.2970     1.2030     0.1660 c6         1 8S0       0.142300
      5 C5          -1.2020     0.0720    -0.3100 c6         1 8S0       0.193300
      6 C6          -2.5660     0.1310     0.3420 c3         1 8S0       0.166600
      7 O1           0.9960    -2.6460    -0.0090 o          1 8S0      -0.488000
      8 O2           2.8790    -0.6560    -0.1090 oh         1 8S0      -0.704000
      9 O3           1.9120     2.0280     0.1520 oh         1 8S0      -0.664000
     10 O4          -0.8140     2.3820    -0.3900 oh         1 8S0      -0.712000
     11 O5          -0.6650    -1.2320    -0.0380 os         1 8S0      -0.436100
     12 O6          -3.3860    -0.8520    -0.2380 oh         1 8S0      -0.642000
     13 H1           1.5710    -0.2320     1.4420 h1         1 8S0       0.063700
     14 H2           1.1550     0.8490    -1.3760 h1         1 8S0       0.066700
     15 H3          -0.3150     1.2440     1.2670 h1         1 8S0       0.051700
     16 H4          -1.3100     0.1530    -1.3970 h1         1 8S0       0.086700
     17 H5          -2.4460    -0.0170     1.4240 h1         1 8S0       0.037200
     18 H6          -2.9660     1.1390     0.1940 h1         1 8S0       0.037200
     19 H7           3.2340    -1.3920     0.4010 ho         1 8S0       0.532000
     20 H8           2.7660     1.9960    -0.2910 ho         1 8S0       0.472000
     21 H9          -0.2430     3.1130    -0.1290 ho         1 8S0       0.531000
     22 H10         -4.2680    -0.7640     0.1340 ho         1 8S0       0.447000
@<TRIPOS>BOND
     1     1     2 1   
     2     1     7 2   
     3     1    11 1   
     4     2     3 1   
     5     2     8 1   
     6     2    13 1   
     7     3     4 1   
     8     3     9 1   
     9     3    14 1   
    10     4     5 1   
    11     4    10 1   
    12     4    15 1   
    13     5     6 1   
    14     5    11 1   
    15     5    16 1   
    16     6    12 1   
    17     6    17 1   
    18     6    18 1   
    19     8    19 1   
    20     9    20 1   
    21    10    21 1   
    22    12    22 1   
@<TRIPOS>SUBSTRUCTURE
     1 8S0         1 TEMP              0 ****  ****    0 ROOT
