@<TRIPOS>MOLECULE
8S1
   22    23     1     0     0
SMALL
No Charge or Current Charge


@<TRIPOS>ATOM
      1 N1          -0.7990    -0.6170     1.6130 nc         1 8S1      -0.498800
      2 N3          -1.3180     1.2630    -1.4790 nv         1 8S1      -1.077000
      3 C4           0.9100     0.4920     0.3540 ca         1 8S1       0.000800
      4 C5           1.4460     1.5630     1.0980 ca         1 8S1      -0.074000
      5 C6           2.7920     1.9360     0.9350 ca         1 8S1      -0.106000
      6 C7           3.6110     1.2410     0.0290 ca         1 8S1      -0.088000
      7 C8           3.0830     0.1700    -0.7130 ca         1 8S1      -0.102000
      8 C10         -1.4580     0.4990    -0.3450 cc         1 8S1       0.325000
      9 C1          -3.8830    -0.0090    -0.2510 ch         1 8S1       0.374000
     10 C2          -2.5550    -0.0670     0.2250 cd         1 8S1      -0.245000
     11 C3          -2.1020    -0.7260     1.3980 cd         1 8S1       0.321900
     12 N2          -0.4270     0.1370     0.5260 na         1 8S1       0.165000
     13 C9           1.7380    -0.2060    -0.5530 ca         1 8S1       0.118000
     14 Cl1          1.1180    -1.5630    -1.4990 cl         1 8S1      -0.172000
     15 N4          -4.9880     0.0190    -0.6260 n1         1 8S1      -0.489000
     16 H1          -2.0940     1.3370    -2.1360 hn         1 8S1       0.486000
     17 H2          -0.3860     1.4680    -1.8390 hn         1 8S1       0.486000
     18 H3           0.8180     2.1050     1.8020 ha         1 8S1       0.139000
     19 H4           3.2000     2.7640     1.5110 ha         1 8S1       0.128000
     20 H5           4.6520     1.5300    -0.0970 ha         1 8S1       0.125000
     21 H6           3.7170    -0.3700    -1.4120 ha         1 8S1       0.136000
     22 H7          -2.6990    -1.2850     2.1070 h4         1 8S1       0.048100
@<TRIPOS>BOND
     1     1    11 2   
     2     1    12 1   
     3     2     8 1   
     4     2    16 1   
     5     2    17 1   
     6     3     4 ar  
     7     3    12 1   
     8     3    13 ar  
     9     4     5 ar  
    10     4    18 1   
    11     5     6 ar  
    12     5    19 1   
    13     6     7 ar  
    14     6    20 1   
    15     7    13 ar  
    16     7    21 1   
    17     8    10 2   
    18     8    12 1   
    19     9    10 1   
    20     9    15 3   
    21    10    11 1   
    22    11    22 1   
    23    13    14 1   
@<TRIPOS>SUBSTRUCTURE
     1 8S1         1 TEMP              0 ****  ****    0 ROOT
