@<TRIPOS>MOLECULE
8S1
   22    23     1     0     0
SMALL
bcc


@<TRIPOS>ATOM
      1 N1          -0.8080    -0.6770     1.5030 nc         1 8S1      -0.498800
      2 N3          -1.3110     1.3880    -1.3240 nv         1 8S1      -0.828200
      3 C4           0.9310     0.5180     0.3420 ca         1 8S1       0.000800
      4 C5           1.4440     1.6180     1.0140 ca         1 8S1      -0.092000
      5 C6           2.7740     1.9700     0.8530 ca         1 8S1      -0.124000
      6 C7           3.5900     1.2200     0.0160 ca         1 8S1      -0.106000
      7 C8           3.0860     0.1200    -0.6630 ca         1 8S1      -0.120000
      8 C10         -1.4430     0.5290    -0.2970 cc         1 8S1       0.237300
      9 C1          -3.8810    -0.0140    -0.2650 ch         1 8S1       0.284800
     10 C2          -2.5730    -0.1010     0.2300 cd         1 8S1      -0.310300
     11 C3          -2.0900    -0.8300     1.3450 cd         1 8S1       0.387200
     12 N2          -0.4240     0.1600     0.5020 na         1 8S1       0.114300
     13 C9           1.7560    -0.2280    -0.4960 ca         1 8S1       0.026400
     14 CL1          1.1060    -1.5900    -1.3310 cl         1 8S1      -0.080400
     15 N4          -4.9570     0.0630    -0.6790 n1         1 8S1      -0.399800
     16 H1          -2.0720     1.4370    -1.9810 hn         1 8S1       0.430800
     17 H2          -0.4030     1.5010    -1.7460 hn         1 8S1       0.430800
     18 H3           0.7910     2.1900     1.6600 ha         1 8S1       0.157000
     19 H4           3.1730     2.8270     1.3780 ha         1 8S1       0.146000
     20 H5           4.6290     1.4900    -0.1140 ha         1 8S1       0.143000
     21 H6           3.7220    -0.4600    -1.3160 ha         1 8S1       0.154000
     22 H7          -2.6650    -1.4500     2.0150 h4         1 8S1       0.048100
@<TRIPOS>BOND
     1     1    11 2   
     2     1    12 1   
     3     2     8 1   
     4     2    16 1   
     5     2    17 1   
     6     3     4 ar  
     7     3    12 1   
     8     3    13 ar  
     9     4     5 ar  
    10     4    18 1   
    11     5     6 ar  
    12     5    19 1   
    13     6     7 ar  
    14     6    20 1   
    15     7    13 ar  
    16     7    21 1   
    17     8    10 2   
    18     8    12 1   
    19     9    10 1   
    20     9    15 3   
    21    10    11 1   
    22    11    22 1   
    23    13    14 1   
@<TRIPOS>SUBSTRUCTURE
     1 8S1         1 TEMP              0 ****  ****    0 ROOT
