@<TRIPOS>MOLECULE
8S2
   56    59     1     0     0
SMALL
abcg2


@<TRIPOS>ATOM
      1 C6          -5.5060    -0.0650     0.2720 ca         1 8S2       0.120100
      2 C7          -4.3900    -0.6680    -0.2710 ca         1 8S2      -0.166000
      3 C10         -3.3140    -0.5430     1.8810 ca         1 8S2      -0.124000
      4 C20         -0.1130    -2.6540    -0.5440 c5         1 8S2       0.046700
      5 C26          1.1800    -4.6680    -0.7310 c5         1 8S2       0.151500
      6 C28         -0.2080    -4.1690    -0.3420 c5         1 8S2      -0.085400
      7 F1          -5.7660     1.4350    -2.0990 f          1 8S2      -0.109000
      8 C2          -6.7460     1.2560    -1.2090 c3         1 8S2       0.515000
      9 F3          -6.7440     2.3280    -0.4150 f          1 8S2      -0.109000
     10 F4          -7.8970     1.2200    -1.8610 f          1 8S2      -0.109000
     11 O5          -6.6270     0.1070    -0.5330 os         1 8S2      -0.405100
     12 C9          -3.2770    -0.9160     0.5360 ca         1 8S2      -0.001000
     13 C12         -4.4550     0.0580     2.3930 ca         1 8S2      -0.077000
     14 C14         -5.5660     0.3080     1.6030 ca         1 8S2      -0.129000
     15 N16         -2.1890    -1.5320    -0.0830 ns         1 8S2      -0.138000
     16 C18         -1.0010    -1.9130     0.4480 c          1 8S2       0.615100
     17 O19         -0.6750    -1.7560     1.6070 o          1 8S2      -0.563100
     18 N22          1.2880    -2.3740    -0.3080 n          1 8S2      -0.419800
     19 C23          2.0890    -3.5740    -0.1520 c5         1 8S2       0.066000
     20 N31          1.4290    -6.0220    -0.3050 n8         1 8S2      -0.989200
     21 C34          1.7160    -1.0910    -0.3320 c          1 8S2       0.674100
     22 O35          0.9600    -0.1620    -0.5870 o          1 8S2      -0.638100
     23 N36          3.0400    -0.9010    -0.0510 ns         1 8S2      -0.399100
     24 C38          3.6840     0.3260    -0.0630 cc         1 8S2       0.041400
     25 C39          3.2090     1.5690    -0.3280 cd         1 8S2      -0.149400
     26 N41          4.2560     2.4900    -0.2390 n          1 8S2      -0.096600
     27 C42          5.4200     1.8140     0.0850 ca         1 8S2      -0.051000
     28 C43          5.0910     0.4530     0.2100 ca         1 8S2      -0.125800
     29 C44          6.0700    -0.4820     0.5470 ca         1 8S2      -0.075000
     30 C46          7.3620    -0.0420     0.7600 ca         1 8S2      -0.131000
     31 C48          7.6760     1.3170     0.6430 ca         1 8S2      -0.095000
     32 C50          6.7220     2.2610     0.3070 ca         1 8S2      -0.099000
     33 C52          4.1520     3.8690    -0.4420 c          1 8S2       0.668100
     34 O53          5.1400     4.5500    -0.6420 o          1 8S2      -0.600100
     35 N54          2.8960     4.3530    -0.4320 nt         1 8S2      -0.595000
     36 H1          -4.3860    -0.9670    -1.3120 ha         1 8S2       0.130000
     37 H2          -2.4740    -0.7210     2.5300 ha         1 8S2       0.154000
     38 H3          -0.3910    -2.3930    -1.5720 h1         1 8S2       0.067700
     39 H4           1.2700    -4.6360    -1.8210 h1         1 8S2       0.071700
     40 H5          -0.3930    -4.4050     0.7100 hc         1 8S2       0.072200
     41 H6          -1.0050    -4.6130    -0.9350 hc         1 8S2       0.072200
     42 H7          -4.4730     0.3370     3.4370 ha         1 8S2       0.124000
     43 H8          -6.4550     0.7630     2.0170 ha         1 8S2       0.137000
     44 H9          -2.3080    -1.7090    -1.0690 hn         1 8S2       0.155000
     45 H10          2.3130    -3.7800     0.9010 h1         1 8S2       0.048200
     46 H11          3.0300    -3.5110    -0.7020 h1         1 8S2       0.048200
     47 H12          2.3280    -6.3370    -0.6460 hn         1 8S2       0.405000
     48 H13          1.4720    -6.0700     0.7060 hn         1 8S2       0.405000
     49 H15          3.6080    -1.6950     0.1950 hn         1 8S2       0.324500
     50 H16          2.2230     1.8760    -0.6190 h4         1 8S2       0.245000
     51 H17          5.8350    -1.5350     0.6450 ha         1 8S2       0.102000
     52 H18          8.1360    -0.7500     1.0200 ha         1 8S2       0.112000
     53 H19          8.6940     1.6420     0.8180 ha         1 8S2       0.114000
     54 H20          6.9910     3.3010     0.2200 ha         1 8S2       0.146000
     55 H21          2.1360     3.8730     0.0200 hn         1 8S2       0.324000
     56 H22          2.7910     5.3510    -0.5140 hn         1 8S2       0.324000
@<TRIPOS>BOND
     1     1     2 ar  
     2     1    11 1   
     3     1    14 ar  
     4     2    12 ar  
     5     2    36 1   
     6     3    12 ar  
     7     3    13 ar  
     8     3    37 1   
     9     4     6 1   
    10     4    16 1   
    11     4    18 1   
    12     4    38 1   
    13     5     6 1   
    14     5    19 1   
    15     5    20 1   
    16     5    39 1   
    17     6    40 1   
    18     6    41 1   
    19     7     8 1   
    20     8     9 1   
    21     8    10 1   
    22     8    11 1   
    23    12    15 1   
    24    13    14 ar  
    25    13    42 1   
    26    14    43 1   
    27    15    16 1   
    28    15    44 1   
    29    16    17 2   
    30    18    19 1   
    31    18    21 1   
    32    19    45 1   
    33    19    46 1   
    34    20    47 1   
    35    20    48 1   
    36    21    22 2   
    37    21    23 1   
    38    23    24 1   
    39    23    49 1   
    40    24    25 2   
    41    24    28 1   
    42    25    26 1   
    43    25    50 1   
    44    26    27 1   
    45    26    33 1   
    46    27    28 ar  
    47    27    32 ar  
    48    28    29 ar  
    49    29    30 ar  
    50    29    51 1   
    51    30    31 ar  
    52    30    52 1   
    53    31    32 ar  
    54    31    53 1   
    55    32    54 1   
    56    33    34 2   
    57    33    35 1   
    58    35    55 1   
    59    35    56 1   
@<TRIPOS>SUBSTRUCTURE
     1 8S2         1 TEMP              0 ****  ****    0 ROOT
