@<TRIPOS>MOLECULE
8S2
   56    59     1     0     0
SMALL
No Charge or Current Charge


@<TRIPOS>ATOM
      1 C6          -5.8680    -0.2650    -0.0810 ca         1 8S2       0.120100
      2 C7          -4.6430    -0.8420    -0.4530 ca         1 8S2      -0.166000
      3 C10         -3.6230    -0.0790     1.6130 ca         1 8S2      -0.124000
      4 C20         -0.1400    -2.2910    -0.4940 c5         1 8S2       0.046700
      5 C26          1.0760    -4.3660    -0.7550 c5         1 8S2       0.151500
      6 C28         -0.2470    -3.8160    -0.1750 c5         1 8S2      -0.085400
      7 F1          -8.2320     1.4820    -0.6070 f          1 8S2      -0.109000
      8 C2          -8.2420     0.1350    -0.7360 c3         1 8S2       0.515000
      9 F3          -8.8170    -0.3870     0.3720 f          1 8S2      -0.109000
     10 F4          -9.0580    -0.1530    -1.7740 f          1 8S2      -0.109000
     11 O5          -6.9220    -0.3980    -0.9660 os         1 8S2      -0.405100
     12 C9          -3.5130    -0.7600     0.3820 ca         1 8S2      -0.001000
     13 C12         -4.8440     0.5030     1.9940 ca         1 8S2      -0.077000
     14 C14         -5.9670     0.4130     1.1540 ca         1 8S2      -0.129000
     15 N16         -2.3130    -1.3730    -0.0740 ns         1 8S2      -0.138000
     16 C18         -1.0580    -1.5140     0.5080 c          1 8S2       0.615100
     17 O19         -0.7430    -1.1040     1.6220 o          1 8S2      -0.563100
     18 N22          1.3270    -2.0630    -0.3350 n          1 8S2      -0.419800
     19 C23          2.0990    -3.3230    -0.2150 c5         1 8S2       0.066000
     20 N31          1.3460    -5.7580    -0.3520 n8         1 8S2      -0.989200
     21 C34          1.8950    -0.7760    -0.3360 c          1 8S2       0.674100
     22 O35          1.2190     0.2210    -0.5460 o          1 8S2      -0.638100
     23 N36          3.2500    -0.7290    -0.0970 ns         1 8S2      -0.399100
     24 C38          4.0820     0.3790    -0.0480 cc         1 8S2       0.041400
     25 C39          3.7880     1.7140    -0.2250 cd         1 8S2      -0.149400
     26 N41          4.9170     2.5500    -0.0970 n          1 8S2      -0.096600
     27 C42          5.9810     1.6210     0.1830 ca         1 8S2      -0.051000
     28 C43          5.4930     0.3260     0.2150 ca         1 8S2      -0.125800
     29 C44          6.3220    -0.7780     0.4680 ca         1 8S2      -0.075000
     30 C46          7.6920    -0.5380     0.6950 ca         1 8S2      -0.131000
     31 C48          8.2010     0.7810     0.6660 ca         1 8S2      -0.095000
     32 C50          7.3460     1.8740     0.4090 ca         1 8S2      -0.099000
     33 C52          4.9690     3.9640    -0.2180 c          1 8S2       0.668100
     34 O53          5.9920     4.6180    -0.0930 o          1 8S2      -0.600100
     35 N54          3.8100     4.6050    -0.4890 nt         1 8S2      -0.595000
     36 H1          -4.5760    -1.3620    -1.4060 ha         1 8S2       0.130000
     37 H2          -2.7780     0.0160     2.2880 ha         1 8S2       0.154000
     38 H3          -0.4450    -2.0690    -1.5260 h1         1 8S2       0.067700
     39 H4           1.0480    -4.3310    -1.8550 h1         1 8S2       0.071700
     40 H5          -0.3080    -3.9980     0.9050 hc         1 8S2       0.072200
     41 H6          -1.1300    -4.2760    -0.6330 hc         1 8S2       0.072200
     42 H7          -4.9210     1.0270     2.9450 ha         1 8S2       0.124000
     43 H8          -6.8930     0.8740     1.4800 ha         1 8S2       0.137000
     44 H9          -2.3920    -1.7830    -0.9950 hn         1 8S2       0.155000
     45 H10          2.3660    -3.5120     0.8330 h1         1 8S2       0.048200
     46 H11          3.0160    -3.3160    -0.8200 h1         1 8S2       0.048200
     47 H12          2.2670    -6.0440    -0.7070 hn         1 8S2       0.405000
     48 H13          1.4610    -5.8020     0.6680 hn         1 8S2       0.405000
     49 H15          3.6680    -1.6330     0.0670 hn         1 8S2       0.324500
     50 H16          2.8260     2.1620    -0.4420 h4         1 8S2       0.245000
     51 H17          5.9240    -1.7900     0.4890 ha         1 8S2       0.102000
     52 H18          8.3610    -1.3720     0.8940 ha         1 8S2       0.112000
     53 H19          9.2600     0.9540     0.8430 ha         1 8S2       0.114000
     54 H20          7.7490     2.8830     0.3890 ha         1 8S2       0.146000
     55 H21          2.9510     4.0930    -0.5980 hn         1 8S2       0.324000
     56 H22          3.8210     5.6100    -0.5800 hn         1 8S2       0.324000
@<TRIPOS>BOND
     1     1     2 ar  
     2     1    11 1   
     3     1    14 ar  
     4     2    12 ar  
     5     2    36 1   
     6     3    12 ar  
     7     3    13 ar  
     8     3    37 1   
     9     4     6 1   
    10     4    16 1   
    11     4    18 1   
    12     4    38 1   
    13     5     6 1   
    14     5    19 1   
    15     5    20 1   
    16     5    39 1   
    17     6    40 1   
    18     6    41 1   
    19     7     8 1   
    20     8     9 1   
    21     8    10 1   
    22     8    11 1   
    23    12    15 1   
    24    13    14 ar  
    25    13    42 1   
    26    14    43 1   
    27    15    16 1   
    28    15    44 1   
    29    16    17 2   
    30    18    19 1   
    31    18    21 1   
    32    19    45 1   
    33    19    46 1   
    34    20    47 1   
    35    20    48 1   
    36    21    22 2   
    37    21    23 1   
    38    23    24 1   
    39    23    49 1   
    40    24    25 2   
    41    24    28 1   
    42    25    26 1   
    43    25    50 1   
    44    26    27 1   
    45    26    33 1   
    46    27    28 ar  
    47    27    32 ar  
    48    28    29 ar  
    49    29    30 ar  
    50    29    51 1   
    51    30    31 ar  
    52    30    52 1   
    53    31    32 ar  
    54    31    53 1   
    55    32    54 1   
    56    33    34 2   
    57    33    35 1   
    58    35    55 1   
    59    35    56 1   
@<TRIPOS>SUBSTRUCTURE
     1 8S2         1 TEMP              0 ****  ****    0 ROOT
