@<TRIPOS>MOLECULE
8S3
   38    40     1     0     0
SMALL
bcc


@<TRIPOS>ATOM
      1 C10          1.2620     1.2100     0.0170 ca         1 8S3      -0.078500
      2 C11         -0.0540     1.1280    -0.4020 ca         1 8S3       0.003900
      3 C13         -0.5910    -0.0380    -0.9630 ca         1 8S3       0.252600
      4 C15         -3.0310     0.2360    -0.6620 ca         1 8S3       0.167600
      5 C16         -4.1420     0.6580    -1.3930 ca         1 8S3      -0.181000
      6 C17         -5.3080     1.0460    -0.7550 ca         1 8S3      -0.143000
      7 C18         -5.3580     1.0670     0.6330 ca         1 8S3      -0.173000
      8 C19         -4.2450     0.6650     1.3560 ca         1 8S3      -0.093000
      9 C20         -3.0840     0.2070     0.7370 ca         1 8S3      -0.144600
     10 C21         -2.0000    -0.4010     1.6190 c          1 8S3       0.922200
     11 O23         -1.7140     0.2230     2.6570 o          1 8S3      -0.816300
     12 O22         -1.5520    -1.4990     1.2460 o          1 8S3      -0.816300
     13 N14         -1.8910    -0.1230    -1.3970 nu         1 8S3      -0.642000
     14 C02          0.3110    -1.0950    -1.1380 ca         1 8S3       0.003900
     15 CL1         -0.2620    -2.5670    -1.8460 cl         1 8S3      -0.114400
     16 CL2         -1.0340     2.5460    -0.2680 cl         1 8S3      -0.114400
     17 C04          2.1290     0.1380    -0.1600 ca         1 8S3      -0.050000
     18 C03          1.6380    -1.0150    -0.7690 ca         1 8S3      -0.078500
     19 C05          3.5260     0.2180     0.2690 cc         1 8S3      -0.277600
     20 C09          4.2300    -0.6700     1.0200 cd         1 8S3       0.304000
     21 C24          3.8690    -1.9480     1.6720 c3         1 8S3      -0.139400
     22 O08          5.4810    -0.2280     1.1620 os         1 8S3      -0.132100
     23 N07          5.6340     0.9600     0.5060 nd         1 8S3      -0.393300
     24 C06          4.4800     1.2380    -0.0240 cc         1 8S3       0.353600
     25 C25          4.2840     2.4690    -0.8360 c3         1 8S3      -0.130400
     26 H1           1.6120     2.1260     0.4730 ha         1 8S3       0.135000
     27 H2          -4.0800     0.6900    -2.4740 ha         1 8S3       0.108000
     28 H3          -6.1640     1.3560    -1.3410 ha         1 8S3       0.103000
     29 H4          -6.2540     1.3920     1.1450 ha         1 8S3       0.107000
     30 H5          -4.2850     0.6740     2.4380 ha         1 8S3       0.140000
     31 H7          -2.0560    -0.7720    -2.1490 hn         1 8S3       0.424800
     32 H8           2.2930    -1.8570    -0.9460 ha         1 8S3       0.135000
     33 H9           4.3280    -2.7970     1.1630 hc         1 8S3       0.065700
     34 H10          4.1960    -1.9660     2.7110 hc         1 8S3       0.065700
     35 H11          2.7910    -2.0880     1.6510 hc         1 8S3       0.065700
     36 H12          3.6460     3.1850    -0.3180 hc         1 8S3       0.053033
     37 H13          5.2360     2.9530    -1.0410 hc         1 8S3       0.053033
     38 H14          3.8020     2.2290    -1.7830 hc         1 8S3       0.053033
@<TRIPOS>BOND
     1     1     2 ar  
     2     1    17 ar  
     3     1    26 1   
     4     2     3 ar  
     5     2    16 1   
     6     3    13 1   
     7     3    14 ar  
     8     4     5 ar  
     9     4     9 ar  
    10     4    13 1   
    11     5     6 ar  
    12     5    27 1   
    13     6     7 ar  
    14     6    28 1   
    15     7     8 ar  
    16     7    29 1   
    17     8     9 ar  
    18     8    30 1   
    19     9    10 1   
    20    10    11 1   
    21    10    12 1   
    22    13    31 1   
    23    14    15 1   
    24    14    18 ar  
    25    17    18 ar  
    26    17    19 1   
    27    18    32 1   
    28    19    20 2   
    29    19    24 1   
    30    20    21 1   
    31    20    22 1   
    32    21    33 1   
    33    21    34 1   
    34    21    35 1   
    35    22    23 1   
    36    23    24 2   
    37    24    25 1   
    38    25    36 1   
    39    25    37 1   
    40    25    38 1   
@<TRIPOS>SUBSTRUCTURE
     1 8S3         1 TEMP              0 ****  ****    0 ROOT
