@<TRIPOS>MOLECULE
8S3
   38    40     1     0     0
SMALL
No Charge or Current Charge


@<TRIPOS>ATOM
      1 C10          1.3840     1.2010    -0.1120 ca         1 8S3      -0.060500
      2 C11          0.0160     1.0990    -0.4220 ca         1 8S3       0.095500
      3 C13         -0.5350    -0.1400    -0.8480 ca         1 8S3       0.391000
      4 C15         -3.0870     0.1630    -0.5730 ca         1 8S3       0.306000
      5 C16         -4.1730     0.4140    -1.4300 ca         1 8S3      -0.163000
      6 C17         -5.3940     0.8930    -0.9290 ca         1 8S3      -0.125000
      7 C18         -5.5390     1.1190     0.4460 ca         1 8S3      -0.155000
      8 C19         -4.4710     0.8510     1.3170 ca         1 8S3      -0.075000
      9 C20         -3.2420     0.3610     0.8210 ca         1 8S3      -0.144600
     10 C21         -2.1570     0.0320     1.8070 c          1 8S3       0.711600
     11 O23         -1.8220     0.9030     2.5980 o          1 8S3      -0.711000
     12 O22         -1.7650    -1.1240     1.8800 o          1 8S3      -0.711000
     13 N14         -1.9060    -0.2900    -1.1710 nu         1 8S3      -0.974000
     14 C02          0.3390    -1.2440    -0.9920 ca         1 8S3       0.095500
     15 Cl1         -0.2540    -2.8060    -1.5790 cl         1 8S3      -0.206000
     16 Cl2         -0.9520     2.5810    -0.3240 cl         1 8S3      -0.206000
     17 C04          2.2460     0.0900    -0.2180 ca         1 8S3      -0.050000
     18 C03          1.7030    -1.1290    -0.6750 ca         1 8S3      -0.060500
     19 C05          3.6820     0.2080     0.1060 cc         1 8S3      -0.147000
     20 C09          4.3910    -0.7750     0.7400 cd         1 8S3       0.194300
     21 C24          4.0100    -2.1440     1.2440 c3         1 8S3      -0.139400
     22 O08          5.6500    -0.3220     1.0350 os         1 8S3      -0.087700
     23 N07          5.7570     1.0470     0.6190 nd         1 8S3      -0.393300
     24 C06          4.5700     1.3150     0.1030 cc         1 8S3       0.288300
     25 C25          4.2520     2.6630    -0.4830 c3         1 8S3      -0.130400
     26 H1           1.7570     2.1560     0.2390 ha         1 8S3       0.117000
     27 H2          -4.0670     0.2530    -2.5000 ha         1 8S3       0.090000
     28 H3          -6.2220     1.0930    -1.6050 ha         1 8S3       0.085000
     29 H4          -6.4820     1.4910     0.8410 ha         1 8S3       0.089000
     30 H5          -4.5990     1.0100     2.3860 ha         1 8S3       0.122000
     31 H7          -2.0670    -0.9700    -1.9140 hn         1 8S3       0.480000
     32 H8           2.3410    -1.9930    -0.8270 ha         1 8S3       0.117000
     33 H9           4.1050    -2.8960     0.4530 hc         1 8S3       0.065700
     34 H10          4.6610    -2.4510     2.0710 hc         1 8S3       0.065700
     35 H11          2.9800    -2.1590     1.6180 hc         1 8S3       0.065700
     36 H12          3.7910     3.3170     0.2660 hc         1 8S3       0.053033
     37 H13          5.1630     3.1590    -0.8400 hc         1 8S3       0.053033
     38 H14          3.5730     2.5740    -1.3390 hc         1 8S3       0.053033
@<TRIPOS>BOND
     1     1     2 ar  
     2     1    17 ar  
     3     1    26 1   
     4     2     3 ar  
     5     2    16 1   
     6     3    13 1   
     7     3    14 ar  
     8     4     5 ar  
     9     4     9 ar  
    10     4    13 1   
    11     5     6 ar  
    12     5    27 1   
    13     6     7 ar  
    14     6    28 1   
    15     7     8 ar  
    16     7    29 1   
    17     8     9 ar  
    18     8    30 1   
    19     9    10 1   
    20    10    11 1   
    21    10    12 1   
    22    13    31 1   
    23    14    15 1   
    24    14    18 ar  
    25    17    18 ar  
    26    17    19 1   
    27    18    32 1   
    28    19    20 2   
    29    19    24 1   
    30    20    21 1   
    31    20    22 1   
    32    21    33 1   
    33    21    34 1   
    34    21    35 1   
    35    22    23 1   
    36    23    24 2   
    37    24    25 1   
    38    25    36 1   
    39    25    37 1   
    40    25    38 1   
@<TRIPOS>SUBSTRUCTURE
     1 8S3         1 TEMP              0 ****  ****    0 ROOT
