@<TRIPOS>MOLECULE
8S4
   24    25     1     0     0
SMALL
abcg2


@<TRIPOS>ATOM
      1 N1           2.3950     0.2360     0.3440 na         1 8S4      -0.081700
      2 N3           3.4500    -1.2680    -0.6450 nc         1 8S4      -0.049000
      3 C4          -0.7940    -0.3960     1.3180 ca         1 8S4      -0.042500
      4 C5           0.0040     0.5790     0.7410 ca         1 8S4      -0.167300
      5 C6           1.4010     0.8230     1.2320 c3         1 8S4       0.145900
      6 C7           3.2570     0.8240    -0.4840 cd         1 8S4       0.374400
      7 C8          -0.5140     1.3180    -0.3230 ca         1 8S4      -0.042500
      8 C1          -4.6750    -1.0310    -0.1650 c3         1 8S4       0.146900
      9 C2          -2.5890     0.1020    -0.2040 ca         1 8S4       0.162100
     10 C3          -2.0840    -0.6410     0.8590 ca         1 8S4      -0.174500
     11 N2           3.9250    -0.1120    -1.1090 nc         1 8S4      -0.385000
     12 N4           2.5340    -1.0730     0.2210 nd         1 8S4      -0.205800
     13 C9          -1.7900     1.0870    -0.7940 ca         1 8S4      -0.174500
     14 H1          -0.4150    -0.9820     2.1470 ha         1 8S4       0.115500
     15 H2           1.5540     0.4010     2.2250 h1         1 8S4       0.071200
     16 H3           1.6270     1.8860     1.2900 h1         1 8S4       0.071200
     17 H4           3.3690     1.8890    -0.5970 h5         1 8S4       0.071100
     18 H5           0.0870     2.0900    -0.7890 ha         1 8S4       0.115500
     19 H6          -5.6080    -0.9770    -0.7190 h1         1 8S4       0.044033
     20 H7          -4.2630    -2.0380    -0.2660 h1         1 8S4       0.044033
     21 H8          -4.8810    -0.8390     0.8910 h1         1 8S4       0.044033
     22 H9          -2.6740    -1.4070     1.3430 ha         1 8S4       0.127500
     23 H10         -2.1840     1.6690    -1.6190 ha         1 8S4       0.127500
     24 O1          -3.8200    -0.0510    -0.7220 os         1 8S4      -0.338100
@<TRIPOS>BOND
     1     1     5 1   
     2     1     6 1   
     3     1    12 1   
     4     2    11 1   
     5     2    12 2   
     6     3     4 ar  
     7     3    10 ar  
     8     3    14 1   
     9     4     5 1   
    10     4     7 ar  
    11     5    15 1   
    12     5    16 1   
    13     6    11 2   
    14     6    17 1   
    15     7    13 ar  
    16     7    18 1   
    17     8    19 1   
    18     8    20 1   
    19     8    21 1   
    20     8    24 1   
    21     9    10 ar  
    22     9    13 ar  
    23     9    24 1   
    24    10    22 1   
    25    13    23 1   
@<TRIPOS>SUBSTRUCTURE
     1 8S4         1 TEMP              0 ****  ****    0 ROOT
