@<TRIPOS>MOLECULE
8S4
   24    25     1     0     0
SMALL
No Charge or Current Charge


@<TRIPOS>ATOM
      1 N1           2.4640     0.1360     0.5260 na         1 8S4      -0.081700
      2 N3           4.0370    -1.2660     0.3750 nc         1 8S4      -0.049000
      3 C4          -0.5090    -0.4680     0.8390 ca         1 8S4      -0.042500
      4 C5           0.0590     0.8150     0.7080 ca         1 8S4      -0.167300
      5 C6           1.5030     1.0670     1.1360 c3         1 8S4       0.145900
      6 C7           2.6060    -0.1810    -0.8020 cd         1 8S4       0.374400
      7 C8          -0.7190     1.8650     0.1820 ca         1 8S4      -0.042500
      8 C1          -4.5940    -1.0850    -0.4050 c3         1 8S4       0.146900
      9 C2          -2.6130     0.3520    -0.0870 ca         1 8S4       0.162100
     10 C3          -1.8380    -0.7010     0.4430 ca         1 8S4      -0.174500
     11 N2           3.5870    -1.0570    -0.9090 nc         1 8S4      -0.385000
     12 N4           3.3770    -0.5590     1.2510 nd         1 8S4      -0.205800
     13 C9          -2.0470     1.6300    -0.2130 ca         1 8S4      -0.174500
     14 H1           0.0790    -1.2870     1.2500 ha         1 8S4       0.115500
     15 H2           1.5700     0.9820     2.2280 h1         1 8S4       0.071200
     16 H3           1.8000     2.0890     0.8680 h1         1 8S4       0.071200
     17 H4           1.9930     0.2400    -1.5890 h5         1 8S4       0.071100
     18 H5          -0.2970     2.8630     0.0770 ha         1 8S4       0.115500
     19 H6          -5.6220    -0.9970    -0.7790 h1         1 8S4       0.044033
     20 H7          -4.0770    -1.8430    -1.0080 h1         1 8S4       0.044033
     21 H8          -4.6400    -1.4320     0.6350 h1         1 8S4       0.044033
     22 H9          -2.2460    -1.7010     0.5560 ha         1 8S4       0.127500
     23 H10         -2.6410     2.4440    -0.6190 ha         1 8S4       0.127500
     24 O1          -3.9210     0.1840    -0.4920 os         1 8S4      -0.338100
@<TRIPOS>BOND
     1     1     5 1   
     2     1     6 1   
     3     1    12 1   
     4     2    11 1   
     5     2    12 2   
     6     3     4 ar  
     7     3    10 ar  
     8     3    14 1   
     9     4     5 1   
    10     4     7 ar  
    11     5    15 1   
    12     5    16 1   
    13     6    11 2   
    14     6    17 1   
    15     7    13 ar  
    16     7    18 1   
    17     8    19 1   
    18     8    20 1   
    19     8    21 1   
    20     8    24 1   
    21     9    10 ar  
    22     9    13 ar  
    23     9    24 1   
    24    10    22 1   
    25    13    23 1   
@<TRIPOS>SUBSTRUCTURE
     1 8S4         1 TEMP              0 ****  ****    0 ROOT
