@<TRIPOS>MOLECULE
8S5
   54    57     1     0     0
SMALL
abcg2


@<TRIPOS>ATOM
      1 C4           0.4940    -4.5790     0.8080 c5         1 8S5       0.183300
      2 C14          7.1980     1.2370     1.7200 ca         1 8S5      -0.095000
      3 C5           1.3600    -3.3770     1.1180 c5         1 8S5       0.077000
      4 C6           1.5330    -1.2710    -0.2480 c          1 8S5       0.677100
      5 C11          4.7750     0.3040     0.7820 ca         1 8S5      -0.124800
      6 C7           3.5290     0.0860     0.0960 cc         1 8S5       0.040400
      7 C8           3.3890     1.0800    -0.8170 cd         1 8S5      -0.149400
      8 C10          5.3600     1.4560     0.2280 ca         1 8S5      -0.051000
      9 C12          5.4170    -0.3900     1.8090 ca         1 8S5      -0.074000
     10 C13          6.6290     0.0830     2.2710 ca         1 8S5      -0.131000
     11 N1           0.8890    -2.3880     0.1640 n          1 8S5      -0.422800
     12 N2           2.7110    -0.9950     0.3850 ns         1 8S5      -0.396100
     13 C3          -0.8200    -3.9640     0.3810 c5         1 8S5      -0.121400
     14 N3           4.4980     1.9270    -0.7470 n          1 8S5      -0.096600
     15 C1          -1.3960    -1.5800    -0.1860 c          1 8S5       0.609100
     16 C2          -0.3990    -2.7130    -0.4070 c5         1 8S5       0.052700
     17 F1           1.0480    -5.2710    -0.2690 f          1 8S5      -0.259000
     18 N4           3.6150     3.5180    -2.1760 nt         1 8S5      -0.596000
     19 O2           5.8050     3.5780    -1.6140 o          1 8S5      -0.600100
     20 C15          6.5810     1.9380     0.6980 ca         1 8S5      -0.099000
     21 O3           1.0810    -0.5590    -1.1360 o          1 8S5      -0.639100
     22 N5          -2.2690    -1.4210    -1.2080 ns         1 8S5      -0.136000
     23 C16         -3.3440    -0.5390    -1.3170 ca         1 8S5      -0.004000
     24 C17         -4.0420    -0.5390    -2.5280 ca         1 8S5      -0.160000
     25 C18         -5.1150     0.3100    -2.7210 ca         1 8S5      -0.073000
     26 C19         -5.5300     1.1730    -1.7160 ca         1 8S5      -0.129000
     27 C20         -4.8330     1.1530    -0.5240 ca         1 8S5       0.118100
     28 O4          -5.1880     2.0480     0.4810 os         1 8S5      -0.403100
     29 C21         -6.0990     1.6540     1.3790 c3         1 8S5       0.515000
     30 F2          -6.2630     2.6420     2.2440 f          1 8S5      -0.109333
     31 F3          -7.2830     1.3790     0.8270 f          1 8S5      -0.109333
     32 F4          -5.7270     0.5630     2.0510 f          1 8S5      -0.109333
     33 C22         -3.7490     0.3220    -0.2970 ca         1 8S5      -0.129000
     34 H1           0.4080    -5.2700     1.6460 h1         1 8S5       0.078700
     35 H2           8.1490     1.5910     2.0970 ha         1 8S5       0.115000
     36 H3           1.2020    -3.0570     2.1530 h1         1 8S5       0.064700
     37 H4           2.4190    -3.6100     0.9870 h1         1 8S5       0.064700
     38 H5           2.6190     1.2330    -1.5480 h4         1 8S5       0.244000
     39 H6           4.9840    -1.2820     2.2440 ha         1 8S5       0.103000
     40 H7           7.1450    -0.4410     3.0640 ha         1 8S5       0.112000
     41 H8           3.0000    -1.5650     1.1630 hn         1 8S5       0.324500
     42 H9          -1.4400    -4.6410    -0.2040 hc         1 8S5       0.079200
     43 H10         -1.3770    -3.6840     1.2770 hc         1 8S5       0.079200
     44 H11         -0.3060    -2.9410    -1.4740 h1         1 8S5       0.076700
     45 H12          2.6800     3.2980    -1.8790 hn         1 8S5       0.324000
     46 H13          3.7160     4.3730    -2.7000 hn         1 8S5       0.324000
     47 H14          7.0440     2.8190     0.2850 ha         1 8S5       0.146000
     48 H15         -2.1120    -1.9980    -2.0210 hn         1 8S5       0.156000
     49 H16         -3.7330    -1.2040    -3.3260 ha         1 8S5       0.117000
     50 H17         -5.6360     0.3010    -3.6690 ha         1 8S5       0.122000
     51 H18         -6.3600     1.8500    -1.8670 ha         1 8S5       0.137000
     52 H19         -3.2270     0.3610     0.6450 ha         1 8S5       0.168000
     53 O1          -1.4110    -0.9440     0.8480 o          1 8S5      -0.561100
     54 C9           4.7040     3.0690    -1.5260 c          1 8S5       0.669100
@<TRIPOS>BOND
     1     1     3 1   
     2     1    13 1   
     3     1    17 1   
     4     1    34 1   
     5     2    10 ar  
     6     2    20 ar  
     7     2    35 1   
     8     3    11 1   
     9     3    36 1   
    10     3    37 1   
    11     4    11 1   
    12     4    12 1   
    13     4    21 2   
    14     5     6 1   
    15     5     8 ar  
    16     5     9 ar  
    17     6     7 2   
    18     6    12 1   
    19     7    14 1   
    20     7    38 1   
    21     8    14 1   
    22     8    20 ar  
    23     9    10 ar  
    24     9    39 1   
    25    10    40 1   
    26    11    16 1   
    27    12    41 1   
    28    13    16 1   
    29    13    42 1   
    30    13    43 1   
    31    14    54 1   
    32    15    16 1   
    33    15    22 1   
    34    15    53 2   
    35    16    44 1   
    36    18    45 1   
    37    18    46 1   
    38    18    54 1   
    39    19    54 2   
    40    20    47 1   
    41    22    23 1   
    42    22    48 1   
    43    23    24 ar  
    44    23    33 ar  
    45    24    25 ar  
    46    24    49 1   
    47    25    26 ar  
    48    25    50 1   
    49    26    27 ar  
    50    26    51 1   
    51    27    28 1   
    52    27    33 ar  
    53    28    29 1   
    54    29    30 1   
    55    29    31 1   
    56    29    32 1   
    57    33    52 1   
@<TRIPOS>SUBSTRUCTURE
     1 8S5         1 TEMP              0 ****  ****    0 ROOT
