@<TRIPOS>MOLECULE
8S5
   54    57     1     0     0
SMALL
No Charge or Current Charge


@<TRIPOS>ATOM
      1 C4           0.5440    -4.5750     0.3770 c5         1 8S5       0.183300
      2 C14          7.3910     0.9180     1.9180 ca         1 8S5      -0.095000
      3 C5           1.4760    -3.3900     0.7480 c5         1 8S5       0.077000
      4 C6           1.5140    -1.0430    -0.2740 c          1 8S5       0.677100
      5 C11          4.8910     0.2670     0.8840 ca         1 8S5      -0.124800
      6 C7           3.6200     0.1890     0.2190 cc         1 8S5       0.040400
      7 C8           3.5010     1.3640    -0.4910 cd         1 8S5      -0.149400
      8 C10          5.4750     1.4760     0.5460 ca         1 8S5      -0.051000
      9 C12          5.5200    -0.6520     1.7370 ca         1 8S5      -0.074000
     10 C13          6.7860    -0.3140     2.2560 ca         1 8S5      -0.131000
     11 N1           0.8610    -2.2580     0.0070 n          1 8S5      -0.422800
     12 N2           2.7470    -0.8830     0.3190 ns         1 8S5      -0.396100
     13 C3          -0.8350    -3.8810     0.2740 c5         1 8S5      -0.121400
     14 N3           4.6140     2.2180    -0.3390 n          1 8S5      -0.096600
     15 C1          -1.6090    -1.5040    -0.1690 c          1 8S5       0.609100
     16 C2          -0.5070    -2.5650    -0.5040 c5         1 8S5       0.052700
     17 F1           0.9060    -5.1240    -0.8580 f          1 8S5      -0.259000
     18 N4           3.8370     3.9690    -1.7300 nt         1 8S5      -0.596000
     19 O2           5.8130     4.1750    -0.7430 o          1 8S5      -0.600100
     20 C15          6.7380     1.8260     1.0570 ca         1 8S5      -0.099000
     21 O3           1.0100    -0.2020    -1.0040 o          1 8S5      -0.639100
     22 N5          -2.6180    -1.6100    -1.1200 ns         1 8S5      -0.136000
     23 C16         -3.8360    -0.9000    -1.3040 ca         1 8S5      -0.004000
     24 C17         -4.6910    -1.3400    -2.3310 ca         1 8S5      -0.160000
     25 C18         -5.9110    -0.6910    -2.5750 ca         1 8S5      -0.073000
     26 C19         -6.2860     0.4100    -1.7910 ca         1 8S5      -0.129000
     27 C20         -5.4490     0.8700    -0.7630 ca         1 8S5       0.118100
     28 O4          -5.8890     1.9630    -0.0380 os         1 8S5      -0.403100
     29 C21         -5.1580     2.5640     1.0500 c3         1 8S5       0.515000
     30 F2          -5.8430     3.6100     1.5630 f          1 8S5      -0.109333
     31 F3          -4.9510     1.6940     2.0660 f          1 8S5      -0.109333
     32 F4          -3.9540     3.0380     0.6550 f          1 8S5      -0.109333
     33 C22         -4.2190     0.2130    -0.5200 ca         1 8S5      -0.129000
     34 H1           0.5650    -5.3780     1.1260 h1         1 8S5       0.078700
     35 H2           8.3680     1.1690     2.3250 ha         1 8S5       0.115000
     36 H3           1.4650    -3.2010     1.8300 h1         1 8S5       0.064700
     37 H4           2.5090    -3.5890     0.4340 h1         1 8S5       0.064700
     38 H5           2.6800     1.6820    -1.1230 h4         1 8S5       0.244000
     39 H6           5.0500    -1.5980     1.9930 ha         1 8S5       0.103000
     40 H7           7.3000    -1.0050     2.9200 ha         1 8S5       0.112000
     41 H8           3.0250    -1.6560     0.9030 hn         1 8S5       0.324500
     42 H9          -1.5810    -4.5000    -0.2380 hc         1 8S5       0.079200
     43 H10         -1.2250    -3.6680     1.2770 hc         1 8S5       0.079200
     44 H11         -0.4730    -2.7330    -1.5900 h1         1 8S5       0.076700
     45 H12          3.0040     3.4310    -1.8990 hn         1 8S5       0.324000
     46 H13          3.9570     4.8740    -2.1590 hn         1 8S5       0.324000
     47 H14          7.2120     2.7710     0.8050 ha         1 8S5       0.146000
     48 H15         -2.4580    -2.3270    -1.8160 hn         1 8S5       0.156000
     49 H16         -4.4110    -2.1940    -2.9460 ha         1 8S5       0.117000
     50 H17         -6.5650    -1.0410    -3.3720 ha         1 8S5       0.122000
     51 H18         -7.2310     0.9130    -1.9810 ha         1 8S5       0.137000
     52 H19         -3.5660     0.5660     0.2650 ha         1 8S5       0.168000
     53 O1          -1.6040    -0.7200     0.7760 o          1 8S5      -0.561100
     54 C9           4.8160     3.4950    -0.9260 c          1 8S5       0.669100
@<TRIPOS>BOND
     1     1     3 1   
     2     1    13 1   
     3     1    17 1   
     4     1    34 1   
     5     2    10 ar  
     6     2    20 ar  
     7     2    35 1   
     8     3    11 1   
     9     3    36 1   
    10     3    37 1   
    11     4    11 1   
    12     4    12 1   
    13     4    21 2   
    14     5     6 1   
    15     5     8 ar  
    16     5     9 ar  
    17     6     7 2   
    18     6    12 1   
    19     7    14 1   
    20     7    38 1   
    21     8    14 1   
    22     8    20 ar  
    23     9    10 ar  
    24     9    39 1   
    25    10    40 1   
    26    11    16 1   
    27    12    41 1   
    28    13    16 1   
    29    13    42 1   
    30    13    43 1   
    31    14    54 1   
    32    15    16 1   
    33    15    22 1   
    34    15    53 2   
    35    16    44 1   
    36    18    45 1   
    37    18    46 1   
    38    18    54 1   
    39    19    54 2   
    40    20    47 1   
    41    22    23 1   
    42    22    48 1   
    43    23    24 ar  
    44    23    33 ar  
    45    24    25 ar  
    46    24    49 1   
    47    25    26 ar  
    48    25    50 1   
    49    26    27 ar  
    50    26    51 1   
    51    27    28 1   
    52    27    33 ar  
    53    28    29 1   
    54    29    30 1   
    55    29    31 1   
    56    29    32 1   
    57    33    52 1   
@<TRIPOS>SUBSTRUCTURE
     1 8S5         1 TEMP              0 ****  ****    0 ROOT
