@<TRIPOS>MOLECULE
8S6
   19    18     1     0     0
SMALL
No Charge or Current Charge


@<TRIPOS>ATOM
      1 C1          35.0660    47.1690     2.3040 c3         1 8S6      -0.086100
      2 C2          33.8200    46.6560     1.5500 c3         1 8S6       0.120700
      3 C4          31.3850    47.1500     2.0850 c          1 8S6       0.445100
      4 C6          30.3280    48.3860     2.3190 c          1 8S6       0.658000
      5 C9          34.0270    46.4990     0.0240 c3         1 8S6      -0.216400
      6 C10         35.0660    45.4090    -0.2760 c          1 8S6       0.716000
      7 N3          32.6890    47.5490     1.8110 ns         1 8S6      -0.509900
      8 O5          31.0760    45.9570     2.1440 o          1 8S6      -0.660100
      9 O7          29.1500    48.1260     2.5630 o          1 8S6      -0.723000
     10 O8          30.7510    49.5390     2.2440 o          1 8S6      -0.723000
     11 O11         34.6870    44.2490    -0.3220 o          1 8S6      -0.758500
     12 O12         36.2290    45.7430    -0.4420 o          1 8S6      -0.758500
     13 H1          34.8440    47.2900     3.3720 hc         1 8S6       0.017033
     14 H2          35.8980    46.4620     2.2170 hc         1 8S6       0.017033
     15 H3          35.3910    48.1390     1.9100 hc         1 8S6       0.017033
     16 H4          33.5770    45.6650     1.9610 h1         1 8S6       0.080700
     17 H5          34.3600    47.4740    -0.3540 hc         1 8S6       0.024200
     18 H6          33.0500    46.1880    -0.3670 hc         1 8S6       0.024200
     19 H7          32.8470    48.5510     1.7830 hn         1 8S6       0.316500
@<TRIPOS>BOND
     1     1     2 1   
     2     1    13 1   
     3     1    14 1   
     4     1    15 1   
     5     2     5 1   
     6     2     7 1   
     7     2    16 1   
     8     3     4 1   
     9     3     7 1   
    10     3     8 2   
    11     4     9 1   
    12     4    10 1   
    13     5     6 1   
    14     5    17 1   
    15     5    18 1   
    16     6    11 1   
    17     6    12 1   
    18     7    19 1   
@<TRIPOS>SUBSTRUCTURE
     1 8S6         1 TEMP              0 ****  ****    0 ROOT
