@<TRIPOS>MOLECULE
8S6
   19    18     1     0     0
SMALL
abcg2


@<TRIPOS>ATOM
      1 C1          34.9870    47.0670     2.3800 c3         1 8S6      -0.086100
      2 C2          33.7640    46.6240     1.5890 c3         1 8S6       0.120700
      3 C4          31.3840    47.1740     2.0200 c          1 8S6       0.445100
      4 C6          30.4280    48.3880     2.2590 c          1 8S6       0.658000
      5 C9          34.0520    46.5440     0.0890 c3         1 8S6      -0.216400
      6 C10         35.1190    45.4990    -0.2950 c          1 8S6       0.716000
      7 N3          32.6650    47.5310     1.8640 ns         1 8S6      -0.509900
      8 O5          30.9830    46.0170     1.9900 o          1 8S6      -0.660100
      9 O7          29.2480    48.1000     2.4930 o          1 8S6      -0.723000
     10 O8          30.9550    49.5150     2.1870 o          1 8S6      -0.723000
     11 O11         35.0570    44.4000     0.2960 o          1 8S6      -0.758500
     12 O12         35.9340    45.8250    -1.1800 o          1 8S6      -0.758500
     13 H1          34.7770    47.0970     3.4500 hc         1 8S6       0.017033
     14 H2          35.8170    46.3800     2.2210 hc         1 8S6       0.017033
     15 H3          35.3170    48.0630     2.0720 hc         1 8S6       0.017033
     16 H4          33.4580    45.6370     1.9340 h1         1 8S6       0.080700
     17 H5          34.3370    47.5340    -0.2780 hc         1 8S6       0.024200
     18 H6          33.1200    46.2800    -0.4250 hc         1 8S6       0.024200
     19 H7          32.8390    48.5250     1.8620 hn         1 8S6       0.316500
@<TRIPOS>BOND
     1     1     2 1   
     2     1    13 1   
     3     1    14 1   
     4     1    15 1   
     5     2     5 1   
     6     2     7 1   
     7     2    16 1   
     8     3     4 1   
     9     3     7 1   
    10     3     8 2   
    11     4     9 1   
    12     4    10 1   
    13     5     6 1   
    14     5    17 1   
    15     5    18 1   
    16     6    11 1   
    17     6    12 1   
    18     7    19 1   
@<TRIPOS>SUBSTRUCTURE
     1 8S6         1 TEMP              0 ****  ****    0 ROOT
