@<TRIPOS>MOLECULE
8S7
   22    23     1     0     0
SMALL
abcg2


@<TRIPOS>ATOM
      1 N1           0.4080     0.6930    -0.0510 ns         1 8S7      -0.486400
      2 C4          -0.9060     0.3210     0.0340 cc         1 8S7       0.322900
      3 C5           1.5220    -0.0860     0.1480 c          1 8S7       0.644100
      4 C6           2.7940     0.6510    -0.0380 cx         1 8S7      -0.255700
      5 C7           3.9660    -0.1080    -0.6090 cx         1 8S7      -0.091400
      6 C8           3.9660     0.2590     0.8270 cx         1 8S7      -0.091400
      7 C1          -4.5340     0.3740    -0.0160 c3         1 8S7      -0.134400
      8 C2          -3.0700     0.1310     0.0630 cd         1 8S7       0.304300
      9 C3          -2.0280     1.0600    -0.1690 cd         1 8S7      -0.329000
     10 O1           1.4620    -1.2610     0.4460 o          1 8S7      -0.533100
     11 O2          -1.2270    -0.9250     0.3550 os         1 8S7      -0.057700
     12 N2          -2.6010    -1.0440     0.3730 nc         1 8S7      -0.373300
     13 H1           0.5510     1.6620    -0.2910 hn         1 8S7       0.335500
     14 H2           2.7160     1.6980    -0.3050 hc         1 8S7       0.087700
     15 H3           3.8020    -1.1450    -0.8740 hc         1 8S7       0.085700
     16 H4           4.6080     0.4390    -1.2850 hc         1 8S7       0.085700
     17 H5           4.6090     1.0640     1.1570 hc         1 8S7       0.085700
     18 H6           3.8030    -0.5240     1.5560 hc         1 8S7       0.085700
     19 H7          -4.8270     1.1670     0.6720 hc         1 8S7       0.055700
     20 H8          -4.8140     0.6940    -1.0200 hc         1 8S7       0.055700
     21 H9          -5.0970    -0.5230     0.2320 hc         1 8S7       0.055700
     22 H10         -2.1040     2.1000    -0.4400 ha         1 8S7       0.150000
@<TRIPOS>BOND
     1     1     2 1   
     2     1     3 1   
     3     1    13 1   
     4     2     9 2   
     5     2    11 1   
     6     3     4 1   
     7     3    10 2   
     8     4     5 1   
     9     4     6 1   
    10     4    14 1   
    11     5     6 1   
    12     5    15 1   
    13     5    16 1   
    14     6    17 1   
    15     6    18 1   
    16     7     8 1   
    17     7    19 1   
    18     7    20 1   
    19     7    21 1   
    20     8     9 1   
    21     8    12 2   
    22     9    22 1   
    23    11    12 1   
@<TRIPOS>SUBSTRUCTURE
     1 8S7         1 TEMP              0 ****  ****    0 ROOT
