@<TRIPOS>MOLECULE
8S7
   22    23     1     0     0
SMALL
No Charge or Current Charge


@<TRIPOS>ATOM
      1 N1           0.4820     0.5680     0.2690 ns         1 8S7      -0.486400
      2 C4          -0.8370     0.1830     0.3380 cc         1 8S7       0.322900
      3 C5           1.5520    -0.0000     0.9090 c          1 8S7       0.644100
      4 C6           2.8650     0.6770     0.6070 cx         1 8S7      -0.255700
      5 C7           3.3980     0.6400    -0.8130 cx         1 8S7      -0.091400
      6 C8           4.0700    -0.1780     0.2650 cx         1 8S7      -0.091400
      7 C1          -4.4120     0.3480    -0.4350 c3         1 8S7      -0.134400
      8 C2          -3.0140     0.0710     0.0350 cd         1 8S7       0.304300
      9 C3          -1.8560     0.7830    -0.3190 cd         1 8S7      -0.329000
     10 O1           1.4630    -0.9580     1.6610 o          1 8S7      -0.533100
     11 O2          -1.3330    -0.8650     1.0750 os         1 8S7      -0.057700
     12 N2          -2.7640    -0.9260     0.8660 nc         1 8S7      -0.373300
     13 H1           0.7130     1.3600    -0.3150 hn         1 8S7       0.335500
     14 H2           3.0550     1.5800     1.1820 hc         1 8S7       0.087700
     15 H3           2.8270     0.1030    -1.5680 hc         1 8S7       0.085700
     16 H4           3.9230     1.5180    -1.1830 hc         1 8S7       0.085700
     17 H5           5.0450     0.1520     0.6170 hc         1 8S7       0.085700
     18 H6           3.9440    -1.2580     0.2310 hc         1 8S7       0.085700
     19 H7          -4.4350     1.2060    -1.1170 hc         1 8S7       0.055700
     20 H8          -4.8240    -0.5160    -0.9690 hc         1 8S7       0.055700
     21 H9          -5.0720     0.5720     0.4100 hc         1 8S7       0.055700
     22 H10         -1.7930     1.6370    -0.9820 ha         1 8S7       0.150000
@<TRIPOS>BOND
     1     1     2 1   
     2     1     3 1   
     3     1    13 1   
     4     2     9 2   
     5     2    11 1   
     6     3     4 1   
     7     3    10 2   
     8     4     5 1   
     9     4     6 1   
    10     4    14 1   
    11     5     6 1   
    12     5    15 1   
    13     5    16 1   
    14     6    17 1   
    15     6    18 1   
    16     7     8 1   
    17     7    19 1   
    18     7    20 1   
    19     7    21 1   
    20     8     9 1   
    21     8    12 2   
    22     9    22 1   
    23    11    12 1   
@<TRIPOS>SUBSTRUCTURE
     1 8S7         1 TEMP              0 ****  ****    0 ROOT
