@<TRIPOS>MOLECULE
8S9
   40    43     1     0     0
SMALL
abcg2


@<TRIPOS>ATOM
      1 C01         -3.9000     1.8390    -0.1080 ca         1 8S9      -0.100000
      2 C02         -5.2810     1.7280    -0.1290 ca         1 8S9      -0.157000
      3 C03         -5.8870     0.4820    -0.0590 ca         1 8S9      -0.057000
      4 C04         -5.1200    -0.6780     0.0320 ca         1 8S9      -0.148600
      5 C05         -3.7370    -0.5630     0.0520 ca         1 8S9      -0.030000
      6 C06         -3.1190     0.6860    -0.0170 ca         1 8S9      -0.199500
      7 C07         -5.7850    -2.0500     0.1110 c          1 8S9       0.714600
      8 O01         -5.0230    -3.0320     0.1900 o          1 8S9      -0.713000
      9 O02         -7.0290    -2.0640     0.0910 o          1 8S9      -0.713000
     10 C08          0.2600     1.7280    -0.0260 cc         1 8S9       0.141500
     11 O03         -1.0770     1.9560    -0.0690 os         1 8S9      -0.256000
     12 C09         -1.6670     0.7570     0.0080 cc         1 8S9       0.558500
     13 N01         -0.8210    -0.2130     0.1020 nd         1 8S9      -0.682000
     14 C10          0.4200     0.3800     0.0990 cd         1 8S9       0.302500
     15 C11          3.9110    -2.0080     0.5430 ca         1 8S9       0.113000
     16 C12          3.8690    -0.7370     1.0980 ca         1 8S9      -0.108000
     17 C13          2.7400     0.0460     0.9570 ca         1 8S9      -0.096000
     18 C14          1.6330    -0.4220     0.2490 ca         1 8S9      -0.087500
     19 C15          1.6750    -1.7040    -0.2930 ca         1 8S9      -0.060000
     20 C16          2.8060    -2.4900    -0.1510 ca         1 8S9       0.113000
     21 CL01         2.8280    -4.0660    -0.8460 cl         1 8S9      -0.178000
     22 C17          2.8300     5.0830    -0.4270 ca         1 8S9      -0.111000
     23 C18          1.6420     5.1970     0.2830 ca         1 8S9      -0.117500
     24 C19          0.8000     4.1040     0.4190 ca         1 8S9      -0.088000
     25 C20          1.1430     2.8780    -0.1560 ca         1 8S9      -0.106500
     26 C21          2.3330     2.7730    -0.8790 ca         1 8S9      -0.088000
     27 C22          3.1720     3.8680    -1.0070 ca         1 8S9      -0.117500
     28 H1          -3.4420     2.8180    -0.1640 ha         1 8S9       0.097000
     29 H2          -5.8880     2.6220    -0.2010 ha         1 8S9       0.092000
     30 H3          -6.9650     0.4050    -0.0760 ha         1 8S9       0.132000
     31 H4          -3.1300    -1.4560     0.1240 ha         1 8S9       0.152000
     32 H6           4.7210    -0.3670     1.6520 ha         1 8S9       0.124000
     33 H7           2.7210     1.0240     1.4200 ha         1 8S9       0.126000
     34 H8           0.8230    -2.0910    -0.8350 ha         1 8S9       0.160000
     35 H9           3.4840     5.9390    -0.5320 ha         1 8S9       0.107000
     36 H10          1.3690     6.1410     0.7370 ha         1 8S9       0.110000
     37 H11         -0.1170     4.2050     0.9840 ha         1 8S9       0.125500
     38 H12          2.5960     1.8380    -1.3560 ha         1 8S9       0.125500
     39 H13          4.0890     3.7750    -1.5730 ha         1 8S9       0.110000
     40 CL02         5.3230    -2.9740     0.7310 cl         1 8S9      -0.191000
@<TRIPOS>BOND
     1     1     2 ar  
     2     1     6 ar  
     3     1    28 1   
     4     2     3 ar  
     5     2    29 1   
     6     3     4 ar  
     7     3    30 1   
     8     4     5 ar  
     9     4     7 1   
    10     5     6 ar  
    11     5    31 1   
    12     6    12 1   
    13     7     8 1   
    14     7     9 1   
    15    10    11 1   
    16    10    14 2   
    17    10    25 1   
    18    11    12 1   
    19    12    13 2   
    20    13    14 1   
    21    14    18 1   
    22    15    16 ar  
    23    15    20 ar  
    24    15    40 1   
    25    16    17 ar  
    26    16    32 1   
    27    17    18 ar  
    28    17    33 1   
    29    18    19 ar  
    30    19    20 ar  
    31    19    34 1   
    32    20    21 1   
    33    22    23 ar  
    34    22    27 ar  
    35    22    35 1   
    36    23    24 ar  
    37    23    36 1   
    38    24    25 ar  
    39    24    37 1   
    40    25    26 ar  
    41    26    27 ar  
    42    26    38 1   
    43    27    39 1   
@<TRIPOS>SUBSTRUCTURE
     1 8S9         1 TEMP              0 ****  ****    0 ROOT
