@<TRIPOS>MOLECULE
8S9
   40    43     1     0     0
SMALL
No Charge or Current Charge


@<TRIPOS>ATOM
      1 C01         -4.0190     1.8260    -0.1320 ca         1 8S9      -0.100000
      2 C02         -5.4140     1.6910    -0.1770 ca         1 8S9      -0.157000
      3 C03         -6.0060     0.4180    -0.1520 ca         1 8S9      -0.057000
      4 C04         -5.2040    -0.7430    -0.0800 ca         1 8S9      -0.148600
      5 C05         -3.7970    -0.5950    -0.0350 ca         1 8S9      -0.030000
      6 C06         -3.1930     0.6830    -0.0600 ca         1 8S9      -0.199500
      7 C07         -5.8380    -2.1220    -0.0530 c          1 8S9       0.714600
      8 O01         -5.1070    -3.1010     0.0080 o          1 8S9      -0.713000
      9 O02         -7.0570    -2.2060    -0.0930 o          1 8S9      -0.713000
     10 C08          0.1480     1.7960     0.0270 cc         1 8S9       0.141500
     11 O03         -1.1780     2.0580    -0.0350 os         1 8S9      -0.256000
     12 C09         -1.7300     0.8120    -0.0130 cc         1 8S9       0.558500
     13 N01         -0.8580    -0.1880     0.0560 nd         1 8S9      -0.682000
     14 C10          0.3760     0.4370     0.0740 cd         1 8S9       0.302500
     15 C11          3.9890    -1.8830     0.6000 ca         1 8S9       0.113000
     16 C12          4.0070    -0.5010     0.8440 ca         1 8S9      -0.108000
     17 C13          2.8410     0.2660     0.6730 ca         1 8S9      -0.096000
     18 C14          1.6370    -0.3340     0.2350 ca         1 8S9      -0.087500
     19 C15          1.6270    -1.7340     0.0270 ca         1 8S9      -0.060000
     20 C16          2.7910    -2.5020     0.1970 ca         1 8S9       0.113000
     21 Cl01         2.7210    -4.2400    -0.1000 cl         1 8S9      -0.178000
     22 C17          2.9990     4.9650    -0.3710 ca         1 8S9      -0.111000
     23 C18          2.0170     5.0200     0.6320 ca         1 8S9      -0.117500
     24 C19          1.0830     3.9780     0.7620 ca         1 8S9      -0.088000
     25 C20          1.1320     2.8680    -0.1040 ca         1 8S9      -0.106500
     26 C21          2.1090     2.8260    -1.1210 ca         1 8S9      -0.088000
     27 C22          3.0430     3.8690    -1.2490 ca         1 8S9      -0.117500
     28 H1          -3.5860     2.8240    -0.1530 ha         1 8S9       0.097000
     29 H2          -6.0420     2.5770    -0.2310 ha         1 8S9       0.092000
     30 H3          -7.0900     0.3390    -0.1870 ha         1 8S9       0.132000
     31 H4          -3.1680    -1.4820     0.0190 ha         1 8S9       0.152000
     32 H6           4.9250    -0.0240     1.1770 ha         1 8S9       0.124000
     33 H7           2.8870     1.3220     0.9160 ha         1 8S9       0.126000
     34 H8           0.7140    -2.2370    -0.2840 ha         1 8S9       0.160000
     35 H9           3.7210     5.7720    -0.4720 ha         1 8S9       0.107000
     36 H10          1.9780     5.8720     1.3080 ha         1 8S9       0.110000
     37 H11          0.3240     4.0290     1.5390 ha         1 8S9       0.125500
     38 H12          2.1460     1.9850    -1.8100 ha         1 8S9       0.125500
     39 H13          3.7980     3.8290    -2.0310 ha         1 8S9       0.110000
     40 Cl02         5.4710    -2.8140     0.8270 cl         1 8S9      -0.191000
@<TRIPOS>BOND
     1     1     2 ar  
     2     1     6 ar  
     3     1    28 1   
     4     2     3 ar  
     5     2    29 1   
     6     3     4 ar  
     7     3    30 1   
     8     4     5 ar  
     9     4     7 1   
    10     5     6 ar  
    11     5    31 1   
    12     6    12 1   
    13     7     8 1   
    14     7     9 1   
    15    10    11 1   
    16    10    14 2   
    17    10    25 1   
    18    11    12 1   
    19    12    13 2   
    20    13    14 1   
    21    14    18 1   
    22    15    16 ar  
    23    15    20 ar  
    24    15    40 1   
    25    16    17 ar  
    26    16    32 1   
    27    17    18 ar  
    28    17    33 1   
    29    18    19 ar  
    30    19    20 ar  
    31    19    34 1   
    32    20    21 1   
    33    22    23 ar  
    34    22    27 ar  
    35    22    35 1   
    36    23    24 ar  
    37    23    36 1   
    38    24    25 ar  
    39    24    37 1   
    40    25    26 ar  
    41    26    27 ar  
    42    26    38 1   
    43    27    39 1   
@<TRIPOS>SUBSTRUCTURE
     1 8S9         1 TEMP              0 ****  ****    0 ROOT
