@<TRIPOS>MOLECULE
8SA
   23    24     1     0     0
SMALL
No Charge or Current Charge


@<TRIPOS>ATOM
      1 N1          -0.3210     0.3700     0.0290 nu         1 8SA      -0.927100
      2 C4          -1.6780     0.3920     0.0050 cc         1 8SA       0.527900
      3 C5           0.5350    -0.7240     0.4730 c3         1 8SA       0.304100
      4 C6           1.9590    -0.2620     0.4070 cc         1 8SA      -0.247300
      5 C7           2.5930     0.6520     1.2140 cd         1 8SA      -0.104000
      6 C8           3.9580     0.8530     0.8790 cd         1 8SA      -0.136000
      7 C1          -5.0440    -0.9670     0.3920 c3         1 8SA      -0.139400
      8 C2          -3.7310    -0.2680     0.1870 cd         1 8SA       0.210300
      9 C3          -2.4610    -0.7110     0.3450 cc         1 8SA      -0.294000
     10 C9           4.3790     0.0930    -0.1830 cc         1 8SA      -0.230000
     11 S1           3.0680    -0.9080    -0.8010 ss         1 8SA       0.201000
     12 N2          -2.3420     1.4670    -0.3460 nd         1 8SA      -0.450300
     13 O1          -3.7190     1.0420    -0.2290 os         1 8SA      -0.077700
     14 H1           0.1230     1.2540    -0.2060 hn         1 8SA       0.501000
     15 H2           0.2910    -1.0100     1.5060 h1         1 8SA       0.051200
     16 H3           0.3970    -1.6060    -0.1690 h1         1 8SA       0.051200
     17 H4           2.0970     1.1710     2.0300 ha         1 8SA       0.138000
     18 H5           4.6070     1.5410     1.4140 ha         1 8SA       0.138000
     19 H6          -5.6450    -0.4540     1.1510 hc         1 8SA       0.061033
     20 H7          -5.6220    -0.9920    -0.5390 hc         1 8SA       0.061033
     21 H8          -4.8920    -2.0010     0.7220 hc         1 8SA       0.061033
     22 H9          -2.1220    -1.6890     0.6600 ha         1 8SA       0.148000
     23 H10          5.3550     0.0430    -0.6470 h4         1 8SA       0.153000
@<TRIPOS>BOND
     1     1     2 1   
     2     1     3 1   
     3     1    14 1   
     4     2     9 1   
     5     2    12 2   
     6     3     4 1   
     7     3    15 1   
     8     3    16 1   
     9     4     5 2   
    10     4    11 1   
    11     5     6 1   
    12     5    17 1   
    13     6    10 2   
    14     6    18 1   
    15     7     8 1   
    16     7    19 1   
    17     7    20 1   
    18     7    21 1   
    19     8     9 2   
    20     8    13 1   
    21     9    22 1   
    22    10    11 1   
    23    10    23 1   
    24    12    13 1   
@<TRIPOS>SUBSTRUCTURE
     1 8SA         1 TEMP              0 ****  ****    0 ROOT
