@<TRIPOS>MOLECULE
8SA
   23    24     1     0     0
SMALL
bcc


@<TRIPOS>ATOM
      1 N1          -0.3510     0.6000     0.1440 nu         1 8SA      -0.871900
      2 C4          -1.6810     0.4090    -0.0300 cc         1 8SA       0.593200
      3 C5           0.4880    -0.4580     0.6780 c3         1 8SA       0.304100
      4 C6           1.9320    -0.1290     0.4990 cc         1 8SA      -0.102400
      5 C7           2.8160     0.3100     1.4380 cd         1 8SA      -0.122000
      6 C8           4.1130     0.5600     0.9100 cd         1 8SA      -0.154000
      7 C1          -5.0250    -1.0320     0.2980 c3         1 8SA      -0.139400
      8 C2          -3.7230    -0.3580     0.0900 cd         1 8SA       0.320000
      9 C3          -2.4740    -0.6350     0.5300 cc         1 8SA      -0.442600
     10 C9           4.1870     0.3120    -0.4260 cc         1 8SA      -0.103100
     11 S1           2.6870    -0.2340    -1.0480 ss         1 8SA      -0.088800
     12 N2          -2.4130     1.2280    -0.7460 nd         1 8SA      -0.450300
     13 O1          -3.7010     0.7410    -0.6620 os         1 8SA      -0.122100
     14 H1           0.0900     1.2870    -0.4460 hn         1 8SA       0.445800
     15 H2           0.3010    -0.5850     1.7470 h1         1 8SA       0.051200
     16 H3           0.2590    -1.4180     0.2020 h1         1 8SA       0.051200
     17 H4           2.5480     0.4490     2.4770 ha         1 8SA       0.156000
     18 H5           4.9500     0.9070     1.4980 ha         1 8SA       0.156000
     19 H6          -5.7470    -0.3620     0.7670 hc         1 8SA       0.061033
     20 H7          -5.4520    -1.3700    -0.6470 hc         1 8SA       0.061033
     21 H8          -4.8940    -1.8980     0.9430 hc         1 8SA       0.061033
     22 H9          -2.1650    -1.4560     1.1550 ha         1 8SA       0.166000
     23 H10          5.0410     0.4170    -1.0770 h4         1 8SA       0.171000
@<TRIPOS>BOND
     1     1     2 1   
     2     1     3 1   
     3     1    14 1   
     4     2     9 1   
     5     2    12 2   
     6     3     4 1   
     7     3    15 1   
     8     3    16 1   
     9     4     5 2   
    10     4    11 1   
    11     5     6 1   
    12     5    17 1   
    13     6    10 2   
    14     6    18 1   
    15     7     8 1   
    16     7    19 1   
    17     7    20 1   
    18     7    21 1   
    19     8     9 2   
    20     8    13 1   
    21     9    22 1   
    22    10    11 1   
    23    10    23 1   
    24    12    13 1   
@<TRIPOS>SUBSTRUCTURE
     1 8SA         1 TEMP              0 ****  ****    0 ROOT
