@<TRIPOS>MOLECULE
8SB
   87    93     1     0     0
SMALL
abcg2


@<TRIPOS>ATOM
      1 C1          -0.8410    -5.2030     1.1350 c          1 8SB       0.719000
      2 C2          -1.6790    -4.2510     2.0200 c5         1 8SB      -0.037300
      3 C3          -2.4770    -5.0130     3.0770 c5         1 8SB      -0.070400
      4 C4          -3.7330    -5.4100     2.3190 c5         1 8SB      -0.084400
      5 C5          -4.0360    -4.1960     1.4260 c5         1 8SB       0.161900
      6 C6          -4.7710    -4.6410     0.1880 c2         1 8SB      -0.209200
      7 C21         -3.5270    -2.0750    -0.4210 c5         1 8SB       0.023700
      8 C22         -3.3630    -1.0380    -2.5870 c5         1 8SB       0.107000
      9 C24         -4.2720     3.2210    -0.5390 c5         1 8SB      -0.092400
     10 C25         -2.3900    -2.5570     0.4560 c          1 8SB       0.582000
     11 C29          0.5440     3.4960     2.8830 c5         1 8SB      -0.087400
     12 C30          1.7080     2.8380     2.1550 c5         1 8SB       0.106000
     13 C32          2.7750    -0.2300     0.0470 c          1 8SB       0.617100
     14 C33          2.1760    -1.3890    -0.7040 c3         1 8SB      -0.182100
     15 C34         -0.6440     3.1100     2.0090 c5         1 8SB      -0.052500
     16 C10         -2.7820     1.5310    -1.3450 c5         1 8SB       0.032700
     17 C12          3.4300     2.1360    -0.1870 c3         1 8SB       0.041700
     18 C13          4.5770     2.8100    -0.9390 c3         1 8SB      -0.034100
     19 C14          5.8470     2.0180    -0.8240 ca         1 8SB      -0.054300
     20 C15          6.2990     1.1300    -1.7960 ca         1 8SB       0.139000
     21 C16          6.6220     2.1400     0.3290 ca         1 8SB      -0.101000
     22 C17          7.7890     1.4160     0.5090 ca         1 8SB      -0.108000
     23 C18          8.2140     0.5420    -0.4810 ca         1 8SB      -0.105000
     24 C19          7.4690     0.3990    -1.6400 ca         1 8SB      -0.104000
     25 C23         -4.2330    -2.2830    -2.6980 c5         1 8SB      -0.092400
     26 C27         -2.8500     3.6730    -0.1820 c5         1 8SB       0.169900
     27 C31         -0.7520     2.2560    -0.3060 c          1 8SB       0.573000
     28 C35         -0.0760     3.2710     0.5910 c5         1 8SB       0.036700
     29 C47         -1.9040     3.8860     2.2000 c2         1 8SB      -0.175200
     30 C48         -2.8040     4.1230     1.2530 c2         1 8SB      -0.238200
     31 C7          -4.6600    -4.2160    -1.0660 c2         1 8SB      -0.199200
     32 C8          -3.7500    -3.1240    -1.5200 c5         1 8SB      -0.042500
     33 C9          -4.0820     2.2600    -1.7010 c5         1 8SB      -0.083400
     34 N1          -2.7200    -3.5680     1.2740 n          1 8SB      -0.373800
     35 N2          -3.2410    -0.8590    -1.1440 n          1 8SB      -0.388800
     36 N3          -2.0430     2.5150    -0.5830 n          1 8SB      -0.402800
     37 N4           3.1400     0.8220    -0.7210 ns         1 8SB      -0.498900
     38 N5           1.3330     3.0030     0.7500 n          1 8SB      -0.397800
     39 O1          -1.2440    -5.4330    -0.0160 o          1 8SB      -0.726000
     40 O2           0.1660    -5.6830     1.6980 o          1 8SB      -0.726000
     41 O3          -0.1980     1.2400    -0.6830 o          1 8SB      -0.523000
     42 O4           1.7850     3.3470    -1.4230 o          1 8SB      -0.615100
     43 O5           2.9130    -0.2480     1.2600 o          1 8SB      -0.619100
     44 O7          -1.2590    -2.1110     0.3650 o          1 8SB      -0.549000
     45 CL           5.4080     0.9120    -3.2740 cl         1 8SB      -0.210000
     46 H22         -1.0110    -3.5220     2.4830 h1         1 8SB       0.072700
     47 H31         -1.9270    -5.8620     3.4790 hc         1 8SB       0.039200
     48 H32         -2.7270    -4.3530     3.9110 hc         1 8SB       0.039200
     49 H42         -3.5350    -6.2830     1.6930 hc         1 8SB       0.043200
     50 H41         -4.5790    -5.6490     2.9630 hc         1 8SB       0.043200
     51 H5          -4.6950    -3.5130     1.9810 h1         1 8SB       0.031700
     52 H6          -5.5050    -5.4150     0.3920 ha         1 8SB       0.157000
     53 H21         -4.4420    -1.9550     0.1710 h1         1 8SB       0.061700
     54 H95         -2.3830    -1.2010    -3.0450 h1         1 8SB       0.042700
     55 H94         -3.8220    -0.1740    -3.0660 h1         1 8SB       0.042700
     56 H24         -4.7130     2.7030     0.3150 hc         1 8SB       0.057700
     57 H5A         -4.9120     4.0690    -0.7820 hc         1 8SB       0.057700
     58 H29          0.4460     3.1470     3.9100 hc         1 8SB       0.050200
     59 H37          0.6710     4.5820     2.9020 hc         1 8SB       0.050200
     60 H30          2.6580     3.3270     2.3690 h1         1 8SB       0.064200
     61 H36          1.7960     1.7830     2.4200 h1         1 8SB       0.064200
     62 H34          2.5610    -2.3290    -0.3110 hc         1 8SB       0.078033
     63 H33          1.0960    -1.3760    -0.5450 hc         1 8SB       0.078033
     64 H35          2.3610    -1.3530    -1.7770 hc         1 8SB       0.078033
     65 H38         -0.8490     2.0460     2.1840 hc         1 8SB       0.111700
     66 H10         -2.2230     1.2560    -2.2400 h1         1 8SB       0.085700
     67 H12          3.7160     2.0020     0.8550 h1         1 8SB       0.086700
     68 H2A          4.2950     2.9730    -1.9790 hc         1 8SB       0.064200
     69 H13          4.7320     3.7990    -0.5020 hc         1 8SB       0.064200
     70 H16          6.2960     2.8270     1.1020 ha         1 8SB       0.110000
     71 H17          8.3660     1.5360     1.4160 ha         1 8SB       0.112000
     72 H18          9.1260    -0.0280    -0.3590 ha         1 8SB       0.112000
     73 H19          7.7940    -0.2770    -2.4190 ha         1 8SB       0.125000
     74 H93         -5.2870    -2.0190    -2.5780 hc         1 8SB       0.043700
     75 H23         -4.1150    -2.7880    -3.6570 hc         1 8SB       0.043700
     76 H27         -2.5850     4.5310    -0.8160 h1         1 8SB       0.048700
     77 H49         -0.2560     4.2900     0.2290 h1         1 8SB       0.070700
     78 H47         -2.0910     4.2810     3.1930 ha         1 8SB       0.171000
     79 H48         -3.6590     4.7390     1.5160 ha         1 8SB       0.167000
     80 H7          -5.2710    -4.6940    -1.8250 ha         1 8SB       0.158000
     81 H8          -2.7810    -3.5600    -1.7940 hc         1 8SB       0.115700
     82 H91         -4.9290     1.5850    -1.8310 hc         1 8SB       0.051200
     83 H92         -3.9460     2.8040    -2.6370 hc         1 8SB       0.051200
     84 H43          2.8840     0.7910    -1.6960 hn         1 8SB       0.320500
     85 C20         -3.0380     0.2930    -0.4850 c          1 8SB       0.609100
     86 C11          2.1260     2.9210    -0.3280 c          1 8SB       0.594100
     87 O6          -3.1050     0.3680     0.7320 o          1 8SB      -0.595100
@<TRIPOS>BOND
     1     1     2 1   
     2     1    39 1   
     3     1    40 1   
     4     2     3 1   
     5     2    34 1   
     6     2    46 1   
     7     3     4 1   
     8     3    47 1   
     9     3    48 1   
    10     4     5 1   
    11     4    49 1   
    12     4    50 1   
    13     5     6 1   
    14     5    34 1   
    15     5    51 1   
    16     6    31 2   
    17     6    52 1   
    18     7    10 1   
    19     7    32 1   
    20     7    35 1   
    21     7    53 1   
    22     8    25 1   
    23     8    35 1   
    24     8    54 1   
    25     8    55 1   
    26     9    26 1   
    27     9    33 1   
    28     9    56 1   
    29     9    57 1   
    30    10    34 1   
    31    10    44 2   
    32    11    12 1   
    33    11    15 1   
    34    11    58 1   
    35    11    59 1   
    36    12    38 1   
    37    12    60 1   
    38    12    61 1   
    39    13    14 1   
    40    13    37 1   
    41    13    43 2   
    42    14    62 1   
    43    14    63 1   
    44    14    64 1   
    45    15    28 1   
    46    15    29 1   
    47    15    65 1   
    48    16    33 1   
    49    16    36 1   
    50    16    66 1   
    51    16    85 1   
    52    17    18 1   
    53    17    37 1   
    54    17    67 1   
    55    17    86 1   
    56    18    19 1   
    57    18    68 1   
    58    18    69 1   
    59    19    20 ar  
    60    19    21 ar  
    61    20    24 ar  
    62    20    45 1   
    63    21    22 ar  
    64    21    70 1   
    65    22    23 ar  
    66    22    71 1   
    67    23    24 ar  
    68    23    72 1   
    69    24    73 1   
    70    25    32 1   
    71    25    74 1   
    72    25    75 1   
    73    26    30 1   
    74    26    36 1   
    75    26    76 1   
    76    27    28 1   
    77    27    36 1   
    78    27    41 2   
    79    28    38 1   
    80    28    77 1   
    81    29    30 2   
    82    29    78 1   
    83    30    79 1   
    84    31    32 1   
    85    31    80 1   
    86    32    81 1   
    87    33    82 1   
    88    33    83 1   
    89    35    85 1   
    90    37    84 1   
    91    38    86 1   
    92    42    86 2   
    93    85    87 2   
@<TRIPOS>SUBSTRUCTURE
     1 8SB         1 TEMP              0 ****  ****    0 ROOT
