@<TRIPOS>MOLECULE
8SB
   87    93     1     0     0
SMALL
No Charge or Current Charge


@<TRIPOS>ATOM
      1 C1          -2.4780    -6.4950     1.0790 c          1 8SB       0.719000
      2 C2          -3.2330    -5.3160     1.7890 c5         1 8SB      -0.037300
      3 C3          -4.3750    -5.8700     2.6890 c5         1 8SB      -0.070400
      4 C4          -5.5560    -5.9450     1.6970 c5         1 8SB      -0.084400
      5 C5          -5.4530    -4.5790     0.9560 c5         1 8SB       0.161900
      6 C6          -6.1340    -4.7760    -0.4130 c2         1 8SB      -0.209200
      7 C21         -4.3290    -2.3980    -0.5230 c5         1 8SB       0.023700
      8 C22         -3.8130    -1.1590    -2.5940 c5         1 8SB       0.107000
      9 C24         -4.0580     2.9740    -0.3510 c5         1 8SB      -0.092400
     10 C25         -3.3540    -3.2270     0.3690 c          1 8SB       0.582000
     11 C29          0.9030     3.5380     2.8050 c5         1 8SB      -0.087400
     12 C30          2.1690     3.0310     2.0670 c5         1 8SB       0.106000
     13 C32          5.1400     1.1880     1.3960 c          1 8SB       0.617100
     14 C33          5.1920    -0.2560     1.8670 c3         1 8SB      -0.182100
     15 C34         -0.2270     2.7980     2.0440 c5         1 8SB      -0.052500
     16 C10         -2.7150     1.1260    -1.1280 c5         1 8SB       0.032700
     17 C12          4.0480     2.7380    -0.2910 c3         1 8SB       0.041700
     18 C13          4.8350     2.7920    -1.6290 c3         1 8SB      -0.034100
     19 C14          6.3290     2.5070    -1.4630 ca         1 8SB      -0.054300
     20 C15          6.8830     1.2170    -1.6640 ca         1 8SB       0.139000
     21 C16          7.1830     3.5650    -1.0890 ca         1 8SB      -0.101000
     22 C17          8.5610     3.3480    -0.9190 ca         1 8SB      -0.108000
     23 C18          9.1020     2.0690    -1.1190 ca         1 8SB      -0.105000
     24 C19          8.2620     1.0060    -1.4900 ca         1 8SB      -0.104000
     25 C23         -4.9230    -2.2070    -2.8500 c5         1 8SB      -0.092400
     26 C27         -2.5880     3.3320     0.0080 c5         1 8SB       0.169900
     27 C31         -0.4780     1.9150    -0.2770 c          1 8SB       0.573000
     28 C35          0.2010     3.0300     0.5720 c5         1 8SB       0.036700
     29 C47         -1.5680     3.4410     2.3850 c2         1 8SB      -0.175200
     30 C48         -2.5770     3.6560     1.5120 c2         1 8SB      -0.238200
     31 C7          -5.7800    -4.2090    -1.5880 c2         1 8SB      -0.199200
     32 C8          -4.5910    -3.2730    -1.7780 c5         1 8SB      -0.042500
     33 C9          -3.8840     2.0550    -1.5800 c5         1 8SB      -0.083400
     34 N1          -3.9800    -4.3840     0.8870 n          1 8SB      -0.373800
     35 N2          -3.7890    -1.1360    -1.1120 n          1 8SB      -0.388800
     36 N3          -1.8800     2.0740    -0.3330 n          1 8SB      -0.402800
     37 N4           4.2300     1.4350     0.3940 ns         1 8SB      -0.498900
     38 N5           1.6850     2.9400     0.6720 n          1 8SB      -0.397800
     39 O1          -2.6660    -6.7230    -0.1090 o          1 8SB      -0.726000
     40 O2          -1.6430    -7.1180     1.7210 o          1 8SB      -0.726000
     41 O3           0.0870     0.9590    -0.7990 o          1 8SB      -0.523000
     42 O4           2.0480     3.3760    -1.5420 o          1 8SB      -0.615100
     43 O5           5.8420     2.0620     1.8820 o          1 8SB      -0.619100
     44 O7          -2.1640    -2.9910     0.5580 o          1 8SB      -0.549000
     45 Cl           5.8830    -0.1640    -2.1230 cl         1 8SB      -0.210000
     46 H22         -2.4930    -4.7820     2.3980 h1         1 8SB       0.072700
     47 H31         -4.1360    -6.8400     3.1410 hc         1 8SB       0.039200
     48 H32         -4.5980    -5.1760     3.5080 hc         1 8SB       0.039200
     49 H42         -5.4310    -6.7920     1.0120 hc         1 8SB       0.043200
     50 H41         -6.5210    -6.0730     2.2000 hc         1 8SB       0.043200
     51 H5          -5.9230    -3.7760     1.5400 h1         1 8SB       0.031700
     52 H6          -7.0100    -5.4270    -0.4350 ha         1 8SB       0.157000
     53 H21         -5.2480    -2.1720     0.0320 h1         1 8SB       0.061700
     54 H95         -2.8440    -1.4880    -2.9930 h1         1 8SB       0.042700
     55 H94         -4.0710    -0.1960    -3.0510 h1         1 8SB       0.042700
     56 H24         -4.5600     2.4370     0.4630 hc         1 8SB       0.057700
     57 H5A         -4.6600     3.8630    -0.5710 hc         1 8SB       0.057700
     58 H29          0.9230     3.3040     3.8750 hc         1 8SB       0.050200
     59 H37          0.8060     4.6260     2.7070 hc         1 8SB       0.050200
     60 H30          3.0120     3.7260     2.1830 h1         1 8SB       0.064200
     61 H36          2.4750     2.0440     2.4380 h1         1 8SB       0.064200
     62 H34          5.9150    -0.4080     2.6750 hc         1 8SB       0.078033
     63 H33          4.1840    -0.5720     2.1570 hc         1 8SB       0.078033
     64 H35          5.4030    -0.9010     1.0070 hc         1 8SB       0.078033
     65 H38         -0.2280     1.7310     2.3040 hc         1 8SB       0.111700
     66 H10         -2.1610     0.7380    -1.9920 h1         1 8SB       0.085700
     67 H12          4.4490     3.5260     0.3580 h1         1 8SB       0.086700
     68 H2A          4.3790     2.1000    -2.3460 hc         1 8SB       0.064200
     69 H13          4.7050     3.7890    -2.0690 hc         1 8SB       0.064200
     70 H16          6.7770     4.5610    -0.9270 ha         1 8SB       0.110000
     71 H17          9.2090     4.1730    -0.6290 ha         1 8SB       0.112000
     72 H18         10.1680     1.9000    -0.9860 ha         1 8SB       0.112000
     73 H19          8.6790     0.0140    -1.6440 ha         1 8SB       0.125000
     74 H93         -5.9170    -1.7710    -2.6920 hc         1 8SB       0.043700
     75 H23         -4.8950    -2.6050    -3.8710 hc         1 8SB       0.043700
     76 H27         -2.2220     4.1680    -0.6050 h1         1 8SB       0.048700
     77 H49         -0.0890     4.0210     0.1990 h1         1 8SB       0.070700
     78 H47         -1.7340     3.7420     3.4220 ha         1 8SB       0.171000
     79 H48         -3.4730     4.1310     1.9170 ha         1 8SB       0.167000
     80 H7          -6.3820    -4.4540    -2.4660 ha         1 8SB       0.158000
     81 H8          -3.6970    -3.8370    -2.0770 hc         1 8SB       0.115700
     82 H91         -4.8070     1.5170    -1.8240 hc         1 8SB       0.051200
     83 H92         -3.6020     2.6360    -2.4660 hc         1 8SB       0.051200
     84 H43          3.6930     0.6390     0.0660 hn         1 8SB       0.320500
     85 C20         -3.2660    -0.0920    -0.3010 c          1 8SB       0.609100
     86 C11          2.5280     3.0730    -0.4550 c          1 8SB       0.594100
     87 O6          -3.2810    -0.1680     0.9230 o          1 8SB      -0.595100
@<TRIPOS>BOND
     1     1     2 1   
     2     1    39 1   
     3     1    40 1   
     4     2     3 1   
     5     2    34 1   
     6     2    46 1   
     7     3     4 1   
     8     3    47 1   
     9     3    48 1   
    10     4     5 1   
    11     4    49 1   
    12     4    50 1   
    13     5     6 1   
    14     5    34 1   
    15     5    51 1   
    16     6    31 2   
    17     6    52 1   
    18     7    10 1   
    19     7    32 1   
    20     7    35 1   
    21     7    53 1   
    22     8    25 1   
    23     8    35 1   
    24     8    54 1   
    25     8    55 1   
    26     9    26 1   
    27     9    33 1   
    28     9    56 1   
    29     9    57 1   
    30    10    34 1   
    31    10    44 2   
    32    11    12 1   
    33    11    15 1   
    34    11    58 1   
    35    11    59 1   
    36    12    38 1   
    37    12    60 1   
    38    12    61 1   
    39    13    14 1   
    40    13    37 1   
    41    13    43 2   
    42    14    62 1   
    43    14    63 1   
    44    14    64 1   
    45    15    28 1   
    46    15    29 1   
    47    15    65 1   
    48    16    33 1   
    49    16    36 1   
    50    16    66 1   
    51    16    85 1   
    52    17    18 1   
    53    17    37 1   
    54    17    67 1   
    55    17    86 1   
    56    18    19 1   
    57    18    68 1   
    58    18    69 1   
    59    19    20 ar  
    60    19    21 ar  
    61    20    24 ar  
    62    20    45 1   
    63    21    22 ar  
    64    21    70 1   
    65    22    23 ar  
    66    22    71 1   
    67    23    24 ar  
    68    23    72 1   
    69    24    73 1   
    70    25    32 1   
    71    25    74 1   
    72    25    75 1   
    73    26    30 1   
    74    26    36 1   
    75    26    76 1   
    76    27    28 1   
    77    27    36 1   
    78    27    41 2   
    79    28    38 1   
    80    28    77 1   
    81    29    30 2   
    82    29    78 1   
    83    30    79 1   
    84    31    32 1   
    85    31    80 1   
    86    32    81 1   
    87    33    82 1   
    88    33    83 1   
    89    35    85 1   
    90    37    84 1   
    91    38    86 1   
    92    42    86 2   
    93    85    87 2   
@<TRIPOS>SUBSTRUCTURE
     1 8SB         1 TEMP              0 ****  ****    0 ROOT
