@<TRIPOS>MOLECULE
8SC
   64    70     1     0     0
SMALL
abcg2


@<TRIPOS>ATOM
      1 N          -14.5420    19.0280    -9.4440 nb         1 8SC      -0.313000
      2 C17        -22.3220    17.7690   -10.1340 c5         1 8SC       0.287300
      3 C14        -19.8020    18.0910   -10.3920 cc         1 8SC       0.458700
      4 C13        -18.4360    14.9530    -9.6240 ca         1 8SC       0.423900
      5 C12        -19.1200    16.1450    -9.9220 ca         1 8SC      -0.067600
      6 C11        -20.5030    16.0850    -9.8660 ca         1 8SC       0.099500
      7 C16        -22.7210    18.2120    -8.7280 c5         1 8SC       0.119300
      8 C15        -22.4610    19.7100    -8.7950 c5         1 8SC       0.190300
      9 N7         -18.7030    17.4050   -10.2590 nd         1 8SC      -0.559100
     10 C8         -20.1430    23.4160    -7.4670 c5         1 8SC       0.133300
     11 N9         -17.0990    14.8620    -9.6330 nv         1 8SC      -1.063900
     12 C1         -16.4880    20.6480    -8.6630 ca         1 8SC       0.129500
     13 O1         -19.1450    23.3630    -6.4720 os         1 8SC      -0.441000
     14 C4         -18.1470    20.3100    -7.2870 cc         1 8SC       0.434700
     15 C5         -19.5770    22.6150    -8.6560 c5         1 8SC       0.196300
     16 P          -22.6610    20.6250    -6.3230 p5         1 8SC       1.397800
     17 O8         -20.8920    21.1170   -10.9060 os         1 8SC      -0.617400
     18 O7         -23.1870    20.4830    -7.8900 os         1 8SC      -0.573400
     19 C3         -15.4330    18.5270    -8.5880 ca         1 8SC       0.411900
     20 O3         -22.1380    19.3110    -5.8470 o          1 8SC      -0.811000
     21 C2         -16.4680    19.3620    -8.1390 ca         1 8SC      -0.070600
     22 O2         -21.3280    21.5670    -6.5240 os         1 8SC      -0.606400
     23 C6         -18.0550    22.5900    -8.3780 c5         1 8SC       0.024300
     24 N1         -15.6050    21.1640    -9.5140 nb         1 8SC      -0.165000
     25 C9         -21.4600    22.9140    -6.9250 c3         1 8SC       0.236600
     26 C          -14.6730    20.2910    -9.8480 ca         1 8SC       0.148900
     27 C10        -20.4910    13.9550    -9.3390 ca         1 8SC       0.147900
     28 C18        -22.8920    20.0230   -10.2280 c5         1 8SC       0.139300
     29 C19        -22.2900    21.2610   -10.8520 c3         1 8SC       0.237600
     30 C7         -17.9210    23.5010    -7.1590 c5         1 8SC       0.133600
     31 F6         -24.0800    17.9890    -8.5670 f          1 8SC      -0.259000
     32 N11        -15.3310    17.2340    -8.2190 nv         1 8SC      -1.066900
     33 N2         -17.5820    21.2440    -8.1110 na         1 8SC      -0.254300
     34 N3         -17.5150    19.1710    -7.2780 nd         1 8SC      -0.578100
     35 N4         -19.1630    13.8660    -9.3440 nb         1 8SC      -0.326000
     36 N5         -21.2420    15.0170    -9.5750 nb         1 8SC      -0.209000
     37 N6         -20.9310    17.3450   -10.1700 na         1 8SC      -0.296300
     38 O10        -19.9480    23.2370    -9.8570 os         1 8SC      -0.585400
     39 O5         -22.5140    18.8650   -10.9730 os         1 8SC      -0.444000
     40 P1         -19.8880    22.3690   -11.2640 p5         1 8SC       1.390800
     41 H1         -22.9210    16.9140   -10.4600 h2         1 8SC       0.091700
     42 H3         -22.1890    17.6880    -7.9360 h1         1 8SC       0.119700
     43 H4         -21.3780    19.8600    -8.6950 h1         1 8SC       0.066700
     44 H5         -20.2960    24.4550    -7.8000 h1         1 8SC       0.042700
     45 H6         -16.6770    14.0250    -9.2650 hn         1 8SC       0.490000
     46 H7         -16.5440    15.7030    -9.5850 hn         1 8SC       0.490000
     47 H8         -19.0390    20.5230    -6.7160 h5         1 8SC       0.111800
     48 H9         -19.9570    21.5900    -8.6260 h1         1 8SC       0.070700
     49 H10        -17.4850    22.9590    -9.2290 h1         1 8SC       0.122700
     50 H11        -21.7740    23.5410    -6.0840 h1         1 8SC       0.030700
     51 H12        -22.2090    23.0390    -7.7150 h1         1 8SC       0.030700
     52 H13        -13.9130    20.6410   -10.5380 h5         1 8SC       0.026100
     53 H15        -21.0200    13.0380    -9.1040 h5         1 8SC       0.023100
     54 H16        -23.9830    20.1420   -10.2550 h1         1 8SC       0.058700
     55 H17        -22.6010    22.1220   -10.2490 h1         1 8SC       0.030700
     56 H18        -22.7070    21.4050   -11.8540 h1         1 8SC       0.030700
     57 H19        -17.0980    23.2320    -6.4970 h1         1 8SC       0.042200
     58 H20        -17.7730    24.5360    -7.4960 h1         1 8SC       0.042200
     59 H21        -14.4500    16.7720    -8.3820 hn         1 8SC       0.472500
     60 H22        -15.8400    16.9250    -7.4070 hn         1 8SC       0.472500
     61 O          -23.7400    21.3860    -5.6300 o          1 8SC      -0.811000
     62 O22        -18.5460    21.7310   -11.4110 o          1 8SC      -0.806500
     63 O4         -20.4960    23.2540   -12.2990 o          1 8SC      -0.806500
     64 H2         -19.8510    19.1350   -10.6600 h5         1 8SC       0.127800
@<TRIPOS>BOND
     1     1    19 ar  
     2     1    26 ar  
     3     2     7 1   
     4     2    37 1   
     5     2    39 1   
     6     2    41 1   
     7     3     9 2   
     8     3    37 1   
     9     3    64 1   
    10     4     5 ar  
    11     4    11 1   
    12     4    35 ar  
    13     5     6 ar  
    14     5     9 1   
    15     6    36 ar  
    16     6    37 1   
    17     7     8 1   
    18     7    31 1   
    19     7    42 1   
    20     8    18 1   
    21     8    28 1   
    22     8    43 1   
    23    10    13 1   
    24    10    15 1   
    25    10    25 1   
    26    10    44 1   
    27    11    45 1   
    28    11    46 1   
    29    12    21 ar  
    30    12    24 ar  
    31    12    33 1   
    32    13    30 1   
    33    14    33 1   
    34    14    34 2   
    35    14    47 1   
    36    15    23 1   
    37    15    38 1   
    38    15    48 1   
    39    16    18 1   
    40    16    20 1   
    41    16    22 1   
    42    16    61 1   
    43    17    29 1   
    44    17    40 1   
    45    19    21 ar  
    46    19    32 1   
    47    21    34 1   
    48    22    25 1   
    49    23    30 1   
    50    23    33 1   
    51    23    49 1   
    52    24    26 ar  
    53    25    50 1   
    54    25    51 1   
    55    26    52 1   
    56    27    35 ar  
    57    27    36 ar  
    58    27    53 1   
    59    28    29 1   
    60    28    39 1   
    61    28    54 1   
    62    29    55 1   
    63    29    56 1   
    64    30    57 1   
    65    30    58 1   
    66    32    59 1   
    67    32    60 1   
    68    38    40 1   
    69    40    62 1   
    70    40    63 1   
@<TRIPOS>SUBSTRUCTURE
     1 8SC         1 TEMP              0 ****  ****    0 ROOT
