@<TRIPOS>MOLECULE
8SC
   64    70     1     0     0
SMALL
No Charge or Current Charge


@<TRIPOS>ATOM
      1 N          -15.0060    18.5100    -9.6220 nb         1 8SC      -0.313000
      2 C17        -22.2260    17.7810   -10.2060 c5         1 8SC       0.287300
      3 C14        -19.7030    18.1550   -10.2620 cc         1 8SC       0.458700
      4 C13        -18.3140    14.9630    -9.6270 ca         1 8SC       0.423900
      5 C12        -19.0380    16.1410    -9.9100 ca         1 8SC      -0.067600
      6 C11        -20.3980    16.0480   -10.0670 ca         1 8SC       0.099500
      7 C16        -22.7180    18.2500    -8.8040 c5         1 8SC       0.119300
      8 C15        -22.3200    19.7530    -8.8740 c5         1 8SC       0.190300
      9 N7         -18.5790    17.4500   -10.0420 nd         1 8SC      -0.559100
     10 C8         -20.1960    23.4210    -7.3930 c5         1 8SC       0.133300
     11 N9         -16.9760    14.9530    -9.3850 nv         1 8SC      -1.063900
     12 C1         -16.7060    20.4900    -8.7390 ca         1 8SC       0.129500
     13 O1         -19.0610    23.5220    -6.5070 os         1 8SC      -0.441000
     14 C4         -17.9760    20.5470    -6.9040 cc         1 8SC       0.434700
     15 C5         -19.6740    22.6150    -8.6280 c5         1 8SC       0.196300
     16 P          -22.6270    20.5200    -6.3840 p5         1 8SC       1.397800
     17 O8         -20.7840    21.3050   -10.9800 os         1 8SC      -0.617400
     18 O7         -23.0850    20.5520    -7.9340 os         1 8SC      -0.573400
     19 C3         -15.7040    18.3340    -8.4890 ca         1 8SC       0.411900
     20 O3         -22.2960    19.1420    -5.9210 o          1 8SC      -0.811000
     21 C2         -16.5760    19.3350    -8.0050 ca         1 8SC      -0.070600
     22 O2         -21.2990    21.4200    -6.5160 os         1 8SC      -0.606400
     23 C6         -18.1130    22.5920    -8.4450 c5         1 8SC       0.024300
     24 N1         -16.0230    20.6940    -9.8830 nb         1 8SC      -0.165000
     25 C9         -21.4450    22.8390    -6.6750 c3         1 8SC       0.236600
     26 C          -15.2040    19.6860   -10.2670 ca         1 8SC       0.148900
     27 C10        -20.2790    13.7900    -9.7180 ca         1 8SC       0.147900
     28 C18        -22.7820    20.0790   -10.3230 c5         1 8SC       0.139300
     29 C19        -22.2130    21.3910   -10.9330 c3         1 8SC       0.237600
     30 C7         -17.9200    23.6910    -7.3620 c5         1 8SC       0.133600
     31 F6         -24.1060    18.0730    -8.6800 f          1 8SC      -0.259000
     32 N11        -15.4890    17.1550    -7.8400 nv         1 8SC      -1.066900
     33 N2         -17.5990    21.2650    -8.0510 na         1 8SC      -0.254300
     34 N3         -17.3580    19.3500    -6.8450 nd         1 8SC      -0.578100
     35 N4         -18.9360    13.7760    -9.5320 nb         1 8SC      -0.326000
     36 N5         -21.0520    14.8730    -9.9730 nb         1 8SC      -0.209000
     37 N6         -20.8350    17.3270   -10.2710 na         1 8SC      -0.296300
     38 O10        -20.0670    23.3410    -9.8220 os         1 8SC      -0.585400
     39 O5         -22.4020    18.9070   -11.1030 os         1 8SC      -0.444000
     40 P1         -19.9060    22.6230   -11.2610 p5         1 8SC       1.390800
     41 H1         -22.8300    16.9330   -10.5510 h2         1 8SC       0.091700
     42 H3         -22.2190    17.7020    -7.9950 h1         1 8SC       0.119700
     43 H4         -21.2430    19.8970    -8.7260 h1         1 8SC       0.066700
     44 H5         -20.4510    24.4450    -7.6990 h1         1 8SC       0.042700
     45 H6         -16.5990    14.1230    -8.9410 hn         1 8SC       0.490000
     46 H7         -16.5700    15.8390    -9.0660 hn         1 8SC       0.490000
     47 H8         -18.6820    20.9370    -6.1790 h5         1 8SC       0.111800
     48 H9         -20.0780    21.6000    -8.6600 h1         1 8SC       0.070700
     49 H10        -17.5980    22.9140    -9.3570 h1         1 8SC       0.122700
     50 H11        -21.5670    23.3320    -5.7020 h1         1 8SC       0.030700
     51 H12        -22.3280    23.0730    -7.2860 h1         1 8SC       0.030700
     52 H13        -14.6450    19.8370   -11.1890 h5         1 8SC       0.026100
     53 H15        -20.7920    12.8330    -9.6420 h5         1 8SC       0.023100
     54 H16        -23.8780    20.1530   -10.3500 h1         1 8SC       0.058700
     55 H17        -22.5360    22.2390   -10.3150 h1         1 8SC       0.030700
     56 H18        -22.6260    21.5240   -11.9410 h1         1 8SC       0.030700
     57 H19        -16.9910    23.5740    -6.7880 h1         1 8SC       0.042200
     58 H20        -17.9440    24.6990    -7.7980 h1         1 8SC       0.042200
     59 H21        -14.5870    16.7120    -7.9930 hn         1 8SC       0.472500
     60 H22        -15.8390    17.1100    -6.8860 hn         1 8SC       0.472500
     61 O          -23.6330    21.1750    -5.5000 o          1 8SC      -0.811000
     62 O22        -18.4900    22.2710   -11.5590 o          1 8SC      -0.806500
     63 O4         -20.5100    23.4460   -12.3480 o          1 8SC      -0.806500
     64 H2         -19.7580    19.2260   -10.3980 h5         1 8SC       0.127800
@<TRIPOS>BOND
     1     1    19 ar  
     2     1    26 ar  
     3     2     7 1   
     4     2    37 1   
     5     2    39 1   
     6     2    41 1   
     7     3     9 2   
     8     3    37 1   
     9     3    64 1   
    10     4     5 ar  
    11     4    11 1   
    12     4    35 ar  
    13     5     6 ar  
    14     5     9 1   
    15     6    36 ar  
    16     6    37 1   
    17     7     8 1   
    18     7    31 1   
    19     7    42 1   
    20     8    18 1   
    21     8    28 1   
    22     8    43 1   
    23    10    13 1   
    24    10    15 1   
    25    10    25 1   
    26    10    44 1   
    27    11    45 1   
    28    11    46 1   
    29    12    21 ar  
    30    12    24 ar  
    31    12    33 1   
    32    13    30 1   
    33    14    33 1   
    34    14    34 2   
    35    14    47 1   
    36    15    23 1   
    37    15    38 1   
    38    15    48 1   
    39    16    18 1   
    40    16    20 1   
    41    16    22 1   
    42    16    61 1   
    43    17    29 1   
    44    17    40 1   
    45    19    21 ar  
    46    19    32 1   
    47    21    34 1   
    48    22    25 1   
    49    23    30 1   
    50    23    33 1   
    51    23    49 1   
    52    24    26 ar  
    53    25    50 1   
    54    25    51 1   
    55    26    52 1   
    56    27    35 ar  
    57    27    36 ar  
    58    27    53 1   
    59    28    29 1   
    60    28    39 1   
    61    28    54 1   
    62    29    55 1   
    63    29    56 1   
    64    30    57 1   
    65    30    58 1   
    66    32    59 1   
    67    32    60 1   
    68    38    40 1   
    69    40    62 1   
    70    40    63 1   
@<TRIPOS>SUBSTRUCTURE
     1 8SC         1 TEMP              0 ****  ****    0 ROOT
