@<TRIPOS>MOLECULE
8SD
   18    19     1     0     0
SMALL
bcc


@<TRIPOS>ATOM
      1 N1           1.6940     0.9660     0.0070 ns         1 8SD      -0.472100
      2 C4          -0.7390     1.5750    -0.0700 ca         1 8SD      -0.119000
      3 C5          -2.0260     1.0440    -0.1010 ca         1 8SD      -0.191000
      4 C6          -2.2370    -0.3320    -0.0870 ca         1 8SD       0.112100
      5 C7          -1.1470    -1.2070    -0.0470 ca         1 8SD      -0.110000
      6 C8           0.1250    -0.6780    -0.0180 ca         1 8SD      -0.106300
      7 C1           1.4660    -1.3410     0.0190 c5         1 8SD      -0.121100
      8 C2           2.4390    -0.1720     0.0400 c          1 8SD       0.706500
      9 C3           0.3270     0.7000    -0.0270 ca         1 8SD       0.025600
     10 O1          -3.4730    -0.8800    -0.1100 oh         1 8SD      -0.493100
     11 O2           3.6520    -0.2260     0.0770 o          1 8SD      -0.605500
     12 H1           2.0990     1.8890     0.0220 hn         1 8SD       0.338500
     13 H2          -0.5920     2.6470    -0.0820 ha         1 8SD       0.140000
     14 H3          -2.8720     1.7200    -0.1380 ha         1 8SD       0.133000
     15 H4          -1.3070    -2.2790    -0.0450 ha         1 8SD       0.153000
     16 H5           1.6160    -1.9670     0.9010 hc         1 8SD       0.092700
     17 H6           1.6560    -1.9720    -0.8530 hc         1 8SD       0.092700
     18 H7          -4.1390    -0.1840    -0.1420 ho         1 8SD       0.425000
@<TRIPOS>BOND
     1     1     8 1   
     2     1     9 1   
     3     1    12 1   
     4     2     3 ar  
     5     2     9 ar  
     6     2    13 1   
     7     3     4 ar  
     8     3    14 1   
     9     4     5 ar  
    10     4    10 1   
    11     5     6 ar  
    12     5    15 1   
    13     6     7 1   
    14     6     9 ar  
    15     7     8 1   
    16     7    16 1   
    17     7    17 1   
    18     8    11 2   
    19    10    18 1   
@<TRIPOS>SUBSTRUCTURE
     1 8SD         1 TEMP              0 ****  ****    0 ROOT
