@<TRIPOS>MOLECULE
8SD
   18    19     1     0     0
SMALL
No Charge or Current Charge


@<TRIPOS>ATOM
      1 N1           1.6810     0.9310     0.0060 ns         1 8SD      -0.146000
      2 C4          -0.7580     1.5920    -0.0670 ca         1 8SD      -0.101000
      3 C5          -2.0630     1.0550    -0.0990 ca         1 8SD      -0.173000
      4 C6          -2.2580    -0.3480    -0.0910 ca         1 8SD       0.112100
      5 C7          -1.1540    -1.2260    -0.0520 ca         1 8SD      -0.092000
      6 C8           0.1350    -0.6750    -0.0210 ca         1 8SD      -0.106300
      7 C1           1.4920    -1.3690     0.0230 c5         1 8SD      -0.121100
      8 C2           2.5030    -0.1780     0.0400 c          1 8SD       0.564000
      9 C3           0.3120     0.6910    -0.0290 ca         1 8SD      -0.067000
     10 O1          -3.5230    -0.8570    -0.1210 oh         1 8SD      -0.532100
     11 O2           3.7280    -0.1800     0.0740 o          1 8SD      -0.530000
     12 H1           2.0560     1.8700     0.0080 hn         1 8SD       0.172000
     13 H2          -0.5900     2.6670    -0.0730 ha         1 8SD       0.122000
     14 H3          -2.9160     1.7280    -0.1290 ha         1 8SD       0.115000
     15 H4          -1.3010    -2.3040    -0.0460 ha         1 8SD       0.135000
     16 H5           1.6540    -1.9840     0.9140 hc         1 8SD       0.092700
     17 H6           1.7020    -2.0010    -0.8460 hc         1 8SD       0.092700
     18 H7          -4.1590    -0.1100    -0.1460 ho         1 8SD       0.464000
@<TRIPOS>BOND
     1     1     8 1   
     2     1     9 1   
     3     1    12 1   
     4     2     3 ar  
     5     2     9 ar  
     6     2    13 1   
     7     3     4 ar  
     8     3    14 1   
     9     4     5 ar  
    10     4    10 1   
    11     5     6 ar  
    12     5    15 1   
    13     6     7 1   
    14     6     9 ar  
    15     7     8 1   
    16     7    16 1   
    17     7    17 1   
    18     8    11 2   
    19    10    18 1   
@<TRIPOS>SUBSTRUCTURE
     1 8SD         1 TEMP              0 ****  ****    0 ROOT
