@<TRIPOS>MOLECULE
8SE
   87    93     1     0     0
SMALL
bcc


@<TRIPOS>ATOM
      1 C2           6.3440     1.0580    -2.7610 c5         1 8SE      -0.036300
      2 N3           0.7160    -2.3860     0.4500 n          1 8SE      -0.460800
      3 C4           6.1810     3.4270    -2.6860 c5         1 8SE      -0.084400
      4 C5           5.2240     2.8850    -1.6110 c5         1 8SE       0.160900
      5 N2           3.3840     0.0490     0.9930 n          1 8SE      -0.461800
      6 C3           6.3140     2.2810    -3.6750 c5         1 8SE      -0.071400
      7 C1           7.7660     0.7780    -2.2220 c          1 8SE       0.929600
      8 O1           8.5550     0.2970    -3.0610 o          1 8SE      -0.830800
      9 N1           5.4150     1.4340    -1.7100 n          1 8SE      -0.433800
     10 C7           5.4490     3.0560     0.9440 c2         1 8SE      -0.146200
     11 C8           5.0780     1.6500     1.2840 c5         1 8SE      -0.042500
     12 C9           2.8410    -3.0400     1.1730 c5         1 8SE      -0.079400
     13 C10          1.8660    -1.8590     1.1510 c5         1 8SE       0.031700
     14 N5          -2.7490    -1.4700    -0.3260 n          1 8SE      -0.468800
     15 C11         -3.4490    -1.6000     0.8180 c          1 8SE       0.665100
     16 C6           5.4920     3.5550    -0.2880 c2         1 8SE      -0.159200
     17 O2           8.0070     1.0700    -1.0390 o          1 8SE      -0.830800
     18 N4          -5.5290    -1.1680     2.0420 ns         1 8SE      -0.563900
     19 C13         -4.2700     0.7710     1.0800 c3         1 8SE      -0.039100
     20 C14         -5.4400     1.6870     1.2980 ca         1 8SE      -0.055300
     21 C12         -4.6880    -0.7110     0.9690 c3         1 8SE       0.055700
     22 C16         -5.6990     2.2150     2.5620 ca         1 8SE      -0.108000
     23 C18         -7.6280     3.3970     1.7600 ca         1 8SE      -0.128000
     24 C19         -7.3950     2.8970     0.4880 ca         1 8SE      -0.128000
     25 C17         -6.7740     3.0580     2.7980 ca         1 8SE      -0.129000
     26 C15         -6.3110     2.0580     0.2750 ca         1 8SE       0.025400
     27 O4          -3.1010    -2.3720     1.6940 o          1 8SE      -0.580100
     28 C21          4.1040     1.0580     0.2580 c5         1 8SE       0.022700
     29 C22          3.7310     0.0470     2.4110 c5         1 8SE       0.111000
     30 C20          2.4470    -0.6840     0.3670 c          1 8SE       0.677100
     31 O5          -4.2700    -0.5450     3.8250 o          1 8SE      -0.584100
     32 C24          2.5360    -3.7450    -0.1370 c5         1 8SE      -0.093400
     33 C27          1.0130    -3.6190    -0.2930 c5         1 8SE       0.157900
     34 C25          4.9180     0.5010    -0.8900 c          1 8SE       0.725500
     35 C23          4.3460     1.4290     2.6050 c5         1 8SE      -0.091400
     36 O6           2.1150    -0.4560    -0.7840 o          1 8SE      -0.597100
     37 C29         -2.4070    -1.6740    -2.6220 c5         1 8SE      -0.092400
     38 C30         -3.1850    -0.8750    -1.5870 c5         1 8SE       0.107000
     39 C31         -0.4220    -1.6680     0.4550 c          1 8SE       0.723500
     40 C33         -6.2370    -1.8350     4.2400 c3         1 8SE      -0.182100
     41 O7           5.1550    -0.6930    -1.0030 o          1 8SE      -0.648500
     42 C35         -1.5000    -2.1790    -0.4730 c5         1 8SE       0.030700
     43 C34         -1.0720    -1.8930    -1.9200 c5         1 8SE      -0.044500
     44 C47         -0.2020    -2.9750    -2.4650 c2         1 8SE      -0.142200
     45 C48          0.6510    -3.7000    -1.7510 c2         1 8SE      -0.169200
     46 CL          -6.0480     1.4830    -1.3460 cl         1 8SE      -0.135400
     47 H22          5.9790     0.1680    -3.2780 h1         1 8SE       0.067700
     48 H41          5.7980     4.3480    -3.1250 hc         1 8SE       0.044200
     49 H42          7.1500     3.6550    -2.2360 hc         1 8SE       0.044200
     50 H5           4.1960     3.1300    -1.9130 h1         1 8SE       0.033700
     51 H31          7.1990     2.3490    -4.3060 hc         1 8SE       0.039200
     52 H32          5.4400     2.2400    -4.3300 hc         1 8SE       0.039200
     53 H7           5.7040     3.7110     1.7710 ha         1 8SE       0.109000
     54 H8           5.9880     1.0360     1.2990 hc         1 8SE       0.108700
     55 H91          3.8810    -2.7260     1.2520 hc         1 8SE       0.062200
     56 H92          2.6180    -3.6830     2.0260 hc         1 8SE       0.062200
     57 H10          1.5910    -1.5490     2.1600 h1         1 8SE       0.083700
     58 H6           5.7340     4.6080    -0.3940 ha         1 8SE       0.108000
     59 H43         -6.3440    -1.6890     1.7670 hn         1 8SE       0.307500
     60 H13         -3.7530     1.0490     0.1610 hc         1 8SE       0.087200
     61 H2A         -3.5550     0.8890     1.8910 hc         1 8SE       0.087200
     62 H12         -5.3000    -0.8120     0.0700 h1         1 8SE       0.056700
     63 H16         -5.0360     1.9540     3.3760 ha         1 8SE       0.157000
     64 H18         -8.4720     4.0520     1.9300 ha         1 8SE       0.130000
     65 H19         -8.0470     3.1610    -0.3340 ha         1 8SE       0.141000
     66 H17         -6.9420     3.4500     3.7930 ha         1 8SE       0.133000
     67 H21          3.4170     1.8330    -0.1000 h1         1 8SE       0.067700
     68 H94          2.8560    -0.1050     3.0410 h1         1 8SE       0.041700
     69 H95          4.4570    -0.7390     2.6410 h1         1 8SE       0.041700
     70 H24          3.0360    -3.2340    -0.9620 hc         1 8SE       0.069700
     71 H5A          2.8490    -4.7880    -0.1500 hc         1 8SE       0.069700
     72 H27          0.5390    -4.4640     0.2250 h1         1 8SE       0.049700
     73 H93          5.0100     1.4690     3.4680 hc         1 8SE       0.046700
     74 H23          3.5620     2.1780     2.7410 hc         1 8SE       0.046700
     75 H29         -2.9000    -2.6300    -2.8190 hc         1 8SE       0.053200
     76 H37         -2.3060    -1.1420    -3.5680 hc         1 8SE       0.053200
     77 H36         -4.2620    -0.9580    -1.7200 h1         1 8SE       0.049700
     78 H30         -2.9140     0.1830    -1.6420 h1         1 8SE       0.049700
     79 H33         -6.4180    -1.2570     5.1440 hc         1 8SE       0.056033
     80 H35         -7.1900    -2.0310     3.7520 hc         1 8SE       0.056033
     81 H34         -5.8120    -2.7940     4.5420 hc         1 8SE       0.056033
     82 H49         -1.6450    -3.2570    -0.3330 h1         1 8SE       0.074700
     83 H38         -0.5180    -0.9460    -1.9440 hc         1 8SE       0.104700
     84 H47         -0.2850    -3.1810    -3.5270 ha         1 8SE       0.123000
     85 H48          1.1920    -4.4910    -2.2620 ha         1 8SE       0.125000
     86 O3          -0.5440    -0.6370     1.0940 o          1 8SE      -0.625500
     87 C32         -5.2430    -1.1160     3.3590 c          1 8SE       0.681100
@<TRIPOS>BOND
     1     1     6 1   
     2     1     7 1   
     3     1     9 1   
     4     1    47 1   
     5     2    13 1   
     6     2    33 1   
     7     2    39 1   
     8     3     4 1   
     9     3     6 1   
    10     3    48 1   
    11     3    49 1   
    12     4     9 1   
    13     4    16 1   
    14     4    50 1   
    15     5    28 1   
    16     5    29 1   
    17     5    30 1   
    18     6    51 1   
    19     6    52 1   
    20     7     8 1   
    21     7    17 1   
    22     9    34 1   
    23    10    11 1   
    24    10    16 2   
    25    10    53 1   
    26    11    28 1   
    27    11    35 1   
    28    11    54 1   
    29    12    13 1   
    30    12    32 1   
    31    12    55 1   
    32    12    56 1   
    33    13    30 1   
    34    13    57 1   
    35    14    15 1   
    36    14    38 1   
    37    14    42 1   
    38    15    21 1   
    39    15    27 2   
    40    16    58 1   
    41    18    21 1   
    42    18    59 1   
    43    18    87 1   
    44    19    20 1   
    45    19    21 1   
    46    19    60 1   
    47    19    61 1   
    48    20    22 ar  
    49    20    26 ar  
    50    21    62 1   
    51    22    25 ar  
    52    22    63 1   
    53    23    24 ar  
    54    23    25 ar  
    55    23    64 1   
    56    24    26 ar  
    57    24    65 1   
    58    25    66 1   
    59    26    46 1   
    60    28    34 1   
    61    28    67 1   
    62    29    35 1   
    63    29    68 1   
    64    29    69 1   
    65    30    36 2   
    66    31    87 2   
    67    32    33 1   
    68    32    70 1   
    69    32    71 1   
    70    33    45 1   
    71    33    72 1   
    72    34    41 2   
    73    35    73 1   
    74    35    74 1   
    75    37    38 1   
    76    37    43 1   
    77    37    75 1   
    78    37    76 1   
    79    38    77 1   
    80    38    78 1   
    81    39    42 1   
    82    39    86 2   
    83    40    79 1   
    84    40    80 1   
    85    40    81 1   
    86    40    87 1   
    87    42    43 1   
    88    42    82 1   
    89    43    44 1   
    90    43    83 1   
    91    44    45 2   
    92    44    84 1   
    93    45    85 1   
@<TRIPOS>SUBSTRUCTURE
     1 8SE         1 TEMP              0 ****  ****    0 ROOT
