@<TRIPOS>MOLECULE
8SE
   87    93     1     0     0
SMALL
No Charge or Current Charge


@<TRIPOS>ATOM
      1 C2           7.1560     1.0650    -2.8810 c5         1 8SE      -0.036300
      2 N3           0.6380    -1.8630     0.1500 n          1 8SE      -0.393800
      3 C4           7.4680     3.4090    -2.4290 c5         1 8SE      -0.084400
      4 C5           6.3530     2.9290    -1.4520 c5         1 8SE       0.160900
      5 N2           3.6940     0.3300     0.7830 n          1 8SE      -0.394800
      6 C3           7.3140     2.4290    -3.6120 c5         1 8SE      -0.071400
      7 C1           8.5640     0.4270    -2.6040 c          1 8SE       0.719000
      8 O1           9.1230    -0.1610    -3.5200 o          1 8SE      -0.725500
      9 N1           6.3700     1.4610    -1.6710 n          1 8SE      -0.366800
     10 C7           6.5280     2.7100     1.1210 c2         1 8SE      -0.196200
     11 C8           5.7290     1.4150     1.2580 c5         1 8SE      -0.042500
     12 C9           2.7240    -2.5880     0.9790 c5         1 8SE      -0.079400
     13 C10          1.8280    -1.3170     0.8640 c5         1 8SE       0.031700
     14 N5          -3.1350    -1.5880    -0.2230 n          1 8SE      -0.401800
     15 C11         -3.7870    -1.7040     1.0260 c          1 8SE       0.598100
     16 C6           6.8010     3.3460    -0.0400 c2         1 8SE      -0.209200
     17 O2           9.0420     0.4510    -1.4770 o          1 8SE      -0.725500
     18 N4          -5.8340    -1.3570     2.4850 ns         1 8SE      -0.496900
     19 C13         -5.0040     0.5970     1.0870 c3         1 8SE      -0.039100
     20 C14         -6.3300     1.3410     1.2590 ca         1 8SE      -0.055300
     21 C12         -5.1450    -0.9470     1.2310 c3         1 8SE       0.055700
     22 C16         -6.5950     2.0160     2.4700 ca         1 8SE      -0.090000
     23 C18         -8.7690     2.7200     1.6340 ca         1 8SE      -0.110000
     24 C19         -8.5130     2.0590     0.4220 ca         1 8SE      -0.110000
     25 C17         -7.8090     2.6990     2.6570 ca         1 8SE      -0.111000
     26 C15         -7.3010     1.3730     0.2300 ca         1 8SE       0.117000
     27 O4          -3.2640    -2.3590     1.9230 o          1 8SE      -0.580100
     28 C21          4.6980     1.2090     0.1210 c5         1 8SE       0.022700
     29 C22          3.8140     0.3470     2.2600 c5         1 8SE       0.111000
     30 C20          2.5700    -0.1730     0.0830 c          1 8SE       0.610100
     31 O5          -4.5010    -0.3140     4.0340 o          1 8SE      -0.584100
     32 C24          2.4440    -3.2890    -0.3690 c5         1 8SE      -0.093400
     33 C27          0.8960    -3.1800    -0.4840 c5         1 8SE       0.157900
     34 C25          5.4610     0.5600    -1.0750 c          1 8SE       0.583000
     35 C23          4.7960     1.5240     2.4900 c5         1 8SE      -0.091400
     36 O6           2.2780     0.2380    -1.0360 o          1 8SE      -0.597100
     37 C29         -2.9060    -2.0310    -2.5220 c5         1 8SE      -0.092400
     38 C30         -3.8540    -1.3580    -1.4970 c5         1 8SE       0.107000
     39 C31         -0.6480    -1.3350     0.3880 c          1 8SE       0.581000
     40 C33         -6.3860    -1.5660     4.8520 c3         1 8SE      -0.182100
     41 O7           5.3520    -0.6030    -1.4540 o          1 8SE      -0.573000
     42 C35         -1.7430    -2.0760    -0.4360 c5         1 8SE       0.030700
     43 C34         -1.5120    -1.7160    -1.9250 c5         1 8SE      -0.044500
     44 C47         -0.4660    -2.5970    -2.6050 c2         1 8SE      -0.192200
     45 C48          0.5680    -3.2100    -1.9860 c2         1 8SE      -0.219200
     46 Cl          -7.0300     0.5730    -1.3190 cl         1 8SE      -0.227000
     47 H22          6.6000     0.3580    -3.5090 h1         1 8SE       0.067700
     48 H41          7.3360     4.4550    -2.7270 hc         1 8SE       0.044200
     49 H42          8.4670     3.3210    -1.9860 hc         1 8SE       0.044200
     50 H5           5.3780     3.3540    -1.7240 h1         1 8SE       0.033700
     51 H31          8.1670     2.4530    -4.3000 hc         1 8SE       0.039200
     52 H32          6.4180     2.6640    -4.1990 hc         1 8SE       0.039200
     53 H7           6.9240     3.1560     2.0370 ha         1 8SE       0.159000
     54 H8           6.3990     0.5510     1.3600 hc         1 8SE       0.108700
     55 H91          3.7880    -2.3710     1.1250 hc         1 8SE       0.062200
     56 H92          2.4050    -3.2160     1.8200 hc         1 8SE       0.062200
     57 H10          1.5550    -0.9400     1.8570 h1         1 8SE       0.083700
     58 H6           7.3850     4.2640     0.0390 ha         1 8SE       0.158000
     59 H43         -6.6550    -1.9450     2.4040 hn         1 8SE       0.307500
     60 H13         -4.5720     0.8440     0.1120 hc         1 8SE       0.087200
     61 H2A         -4.2650     0.9610     1.8100 hc         1 8SE       0.087200
     62 H12         -5.7960    -1.2880     0.4180 h1         1 8SE       0.056700
     63 H16         -5.8600     2.0100     3.2720 ha         1 8SE       0.139000
     64 H18         -9.7090     3.2500     1.7780 ha         1 8SE       0.112000
     65 H19         -9.2540     2.0790    -0.3740 ha         1 8SE       0.123000
     66 H17         -8.0030     3.2130     3.5960 ha         1 8SE       0.115000
     67 H21          4.2220     2.1460    -0.1940 h1         1 8SE       0.067700
     68 H94          2.8560     0.5280     2.7640 h1         1 8SE       0.041700
     69 H95          4.2340    -0.5990     2.6280 h1         1 8SE       0.041700
     70 H24          2.9550    -2.7650    -1.1860 hc         1 8SE       0.069700
     71 H5A          2.7910    -4.3280    -0.3850 hc         1 8SE       0.069700
     72 H27          0.3990    -3.9880     0.0710 h1         1 8SE       0.049700
     73 H93          5.3320     1.4400     3.4420 hc         1 8SE       0.046700
     74 H23          4.2580     2.4800     2.4990 hc         1 8SE       0.046700
     75 H29         -3.0880    -3.1120    -2.5680 hc         1 8SE       0.053200
     76 H37         -3.0380    -1.6330    -3.5350 hc         1 8SE       0.053200
     77 H36         -4.8520    -1.8160    -1.5130 h1         1 8SE       0.049700
     78 H30         -3.9540    -0.2850    -1.7040 h1         1 8SE       0.049700
     79 H33         -6.0730    -1.2770     5.8620 hc         1 8SE       0.056033
     80 H35         -7.4150    -1.2520     4.6430 hc         1 8SE       0.056033
     81 H34         -6.4480    -2.6550     4.7440 hc         1 8SE       0.056033
     82 H49         -1.6920    -3.1560    -0.2500 h1         1 8SE       0.074700
     83 H38         -1.2700    -0.6520    -2.0530 hc         1 8SE       0.104700
     84 H47         -0.5500    -2.7330    -3.6860 ha         1 8SE       0.173000
     85 H48          1.2250    -3.8080    -2.6210 ha         1 8SE       0.175000
     86 O3          -0.8270    -0.3690     1.1220 o          1 8SE      -0.550000
     87 C32         -5.4700    -1.0100     3.7700 c          1 8SE       0.614100
@<TRIPOS>BOND
     1     1     6 1   
     2     1     7 1   
     3     1     9 1   
     4     1    47 1   
     5     2    13 1   
     6     2    33 1   
     7     2    39 1   
     8     3     4 1   
     9     3     6 1   
    10     3    48 1   
    11     3    49 1   
    12     4     9 1   
    13     4    16 1   
    14     4    50 1   
    15     5    28 1   
    16     5    29 1   
    17     5    30 1   
    18     6    51 1   
    19     6    52 1   
    20     7     8 1   
    21     7    17 1   
    22     9    34 1   
    23    10    11 1   
    24    10    16 2   
    25    10    53 1   
    26    11    28 1   
    27    11    35 1   
    28    11    54 1   
    29    12    13 1   
    30    12    32 1   
    31    12    55 1   
    32    12    56 1   
    33    13    30 1   
    34    13    57 1   
    35    14    15 1   
    36    14    38 1   
    37    14    42 1   
    38    15    21 1   
    39    15    27 2   
    40    16    58 1   
    41    18    21 1   
    42    18    59 1   
    43    18    87 1   
    44    19    20 1   
    45    19    21 1   
    46    19    60 1   
    47    19    61 1   
    48    20    22 ar  
    49    20    26 ar  
    50    21    62 1   
    51    22    25 ar  
    52    22    63 1   
    53    23    24 ar  
    54    23    25 ar  
    55    23    64 1   
    56    24    26 ar  
    57    24    65 1   
    58    25    66 1   
    59    26    46 1   
    60    28    34 1   
    61    28    67 1   
    62    29    35 1   
    63    29    68 1   
    64    29    69 1   
    65    30    36 2   
    66    31    87 2   
    67    32    33 1   
    68    32    70 1   
    69    32    71 1   
    70    33    45 1   
    71    33    72 1   
    72    34    41 2   
    73    35    73 1   
    74    35    74 1   
    75    37    38 1   
    76    37    43 1   
    77    37    75 1   
    78    37    76 1   
    79    38    77 1   
    80    38    78 1   
    81    39    42 1   
    82    39    86 2   
    83    40    79 1   
    84    40    80 1   
    85    40    81 1   
    86    40    87 1   
    87    42    43 1   
    88    42    82 1   
    89    43    44 1   
    90    43    83 1   
    91    44    45 2   
    92    44    84 1   
    93    45    85 1   
@<TRIPOS>SUBSTRUCTURE
     1 8SE         1 TEMP              0 ****  ****    0 ROOT
