@<TRIPOS>MOLECULE
8SF
   27    28     1     0     0
SMALL
No Charge or Current Charge


@<TRIPOS>ATOM
      1 C13         -3.1750    -0.5940    -0.3340 c3         1 8SF       0.088300
      2 C15         -3.5660    -0.4650     1.1530 c3         1 8SF      -0.089600
      3 C01          2.7510     0.4160    -0.8310 ca         1 8SF      -0.089000
      4 C02          3.8430    -0.4670    -0.7630 ca         1 8SF      -0.102000
      5 C03          3.8540    -1.4990     0.1920 ca         1 8SF      -0.096000
      6 C04          2.7750    -1.6450     1.0790 ca         1 8SF      -0.102000
      7 C05          1.6830    -0.7620     1.0120 ca         1 8SF      -0.089000
      8 C06          1.6620     0.2710     0.0520 ca         1 8SF      -0.005200
      9 N07          0.5830     1.1540    -0.0190 na         1 8SF       0.016500
     10 C08         -0.7340     0.8270    -0.1190 cc         1 8SF       0.499800
     11 N09         -1.4320     1.9410    -0.1070 nd         1 8SF      -0.407000
     12 N10         -0.4950     2.9480     0.0820 nd         1 8SF      -0.037000
     13 N11          0.7380     2.4870     0.1440 nc         1 8SF      -0.190800
     14 S12         -1.3420    -0.7890    -0.4940 ss         1 8SF      -0.333300
     15 C14         -3.8640    -1.7940    -1.0110 c3         1 8SF      -0.089600
     16 H1          -3.2610    -1.3570     1.7140 hc         1 8SF       0.049700
     17 H2          -3.0900     0.4080     1.6130 hc         1 8SF       0.049700
     18 H3          -4.6520    -0.3490     1.2570 hc         1 8SF       0.049700
     19 H5           4.6790    -0.3520    -1.4490 ha         1 8SF       0.123000
     20 H6           4.6990    -2.1820     0.2440 ha         1 8SF       0.120000
     21 H7           2.7850    -2.4410     1.8210 ha         1 8SF       0.123000
     22 H8           0.8550    -0.8810     1.7090 ha         1 8SF       0.135500
     23 H9          -4.9550    -1.6950    -0.9570 hc         1 8SF       0.049700
     24 H10         -3.5800    -1.8540    -2.0680 hc         1 8SF       0.049700
     25 H11         -3.5780    -2.7340    -0.5230 hc         1 8SF       0.049700
     26 H12         -3.4790     0.3190    -0.8660 h1         1 8SF       0.092700
     27 H4           2.7500     1.2120    -1.5730 ha         1 8SF       0.135500
@<TRIPOS>BOND
     1     1     2 1   
     2     1    14 1   
     3     1    15 1   
     4     1    26 1   
     5     2    16 1   
     6     2    17 1   
     7     2    18 1   
     8     3     4 ar  
     9     3     8 ar  
    10     3    27 1   
    11     4     5 ar  
    12     4    19 1   
    13     5     6 ar  
    14     5    20 1   
    15     6     7 ar  
    16     6    21 1   
    17     7     8 ar  
    18     7    22 1   
    19     8     9 1   
    20     9    10 1   
    21     9    13 1   
    22    10    11 2   
    23    10    14 1   
    24    11    12 1   
    25    12    13 2   
    26    15    23 1   
    27    15    24 1   
    28    15    25 1   
@<TRIPOS>SUBSTRUCTURE
     1 8SF         1 TEMP              0 ****  ****    0 ROOT
