@<TRIPOS>MOLECULE
8SF
   27    28     1     0     0
SMALL
abcg2


@<TRIPOS>ATOM
      1 C13         -3.1620    -0.5770    -0.3160 c3         1 8SF       0.088300
      2 C15         -3.7350    -0.2660     1.0540 c3         1 8SF      -0.089600
      3 C01          2.7190     0.4430    -0.7990 ca         1 8SF      -0.089000
      4 C02          3.8350    -0.3800    -0.7920 ca         1 8SF      -0.102000
      5 C03          3.9090    -1.4520     0.0860 ca         1 8SF      -0.096000
      6 C04          2.8680    -1.7000     0.9720 ca         1 8SF      -0.102000
      7 C05          1.7530    -0.8750     0.9870 ca         1 8SF      -0.089000
      8 C06          1.6890     0.1850     0.0940 ca         1 8SF      -0.005200
      9 N07          0.5520     1.0300     0.0950 na         1 8SF       0.016500
     10 C08         -0.7520     0.7290    -0.0240 cc         1 8SF       0.499800
     11 N09         -1.4240     1.8560     0.0020 nd         1 8SF      -0.407000
     12 N10         -0.5150     2.8250     0.1320 nd         1 8SF      -0.037000
     13 N11          0.6610     2.3580     0.1870 nc         1 8SF      -0.190800
     14 S12         -1.3500    -0.8790    -0.2300 ss         1 8SF      -0.333300
     15 C14         -3.7630    -1.8350    -0.9250 c3         1 8SF      -0.089600
     16 H1          -3.6050    -1.1100     1.7320 hc         1 8SF       0.049700
     17 H2          -3.2740     0.6130     1.4980 hc         1 8SF       0.049700
     18 H3          -4.8040    -0.0690     0.9610 hc         1 8SF       0.049700
     19 H5           4.6450    -0.1840    -1.4820 ha         1 8SF       0.123000
     20 H6           4.7790    -2.0950     0.0830 ha         1 8SF       0.120000
     21 H7           2.9250    -2.5300     1.6620 ha         1 8SF       0.123000
     22 H8           0.9540    -1.0490     1.6960 ha         1 8SF       0.135500
     23 H9          -4.8430    -1.7120    -1.0020 hc         1 8SF       0.049700
     24 H10         -3.3750    -2.0290    -1.9250 hc         1 8SF       0.049700
     25 H11         -3.5730    -2.7110    -0.3030 hc         1 8SF       0.049700
     26 H12         -3.3060     0.2650    -0.9940 h1         1 8SF       0.092700
     27 H4           2.6470     1.2710    -1.4910 ha         1 8SF       0.135500
@<TRIPOS>BOND
     1     1     2 1   
     2     1    14 1   
     3     1    15 1   
     4     1    26 1   
     5     2    16 1   
     6     2    17 1   
     7     2    18 1   
     8     3     4 ar  
     9     3     8 ar  
    10     3    27 1   
    11     4     5 ar  
    12     4    19 1   
    13     5     6 ar  
    14     5    20 1   
    15     6     7 ar  
    16     6    21 1   
    17     7     8 ar  
    18     7    22 1   
    19     8     9 1   
    20     9    10 1   
    21     9    13 1   
    22    10    11 2   
    23    10    14 1   
    24    11    12 1   
    25    12    13 2   
    26    15    23 1   
    27    15    24 1   
    28    15    25 1   
@<TRIPOS>SUBSTRUCTURE
     1 8SF         1 TEMP              0 ****  ****    0 ROOT
