@<TRIPOS>MOLECULE
8SG
   22    23     1     0     0
SMALL
No Charge or Current Charge


@<TRIPOS>ATOM
      1 N1           0.0820     0.1790    -0.0080 ns         1 8SG      -0.479400
      2 C4           1.4460    -0.0100     0.0110 cc         1 8SG       0.321900
      3 C5          -0.9020    -0.7840     0.0270 c          1 8SG       0.551600
      4 C6          -2.2730    -0.2120    -0.0080 cc         1 8SG       0.038500
      5 C7          -3.4470    -0.9180     0.0150 cd         1 8SG      -0.086000
      6 C8          -4.4900     0.0300    -0.0350 cd         1 8SG      -0.199000
      7 C1           4.9620     1.0110    -0.0080 c3         1 8SG      -0.134400
      8 C2           3.6180     0.3430     0.0110 cd         1 8SG       0.303300
      9 C3           2.3680     0.9800    -0.0260 cd         1 8SG      -0.323000
     10 C9          -3.9150     1.2720    -0.0850 cc         1 8SG       0.155900
     11 O1          -2.5420     1.1430    -0.0690 os         1 8SG      -0.244000
     12 O2          -0.6600    -1.9820     0.0820 o          1 8SG      -0.519100
     13 O3           2.0910    -1.2210     0.0680 os         1 8SG      -0.058700
     14 N2           3.5170    -0.9740     0.0680 nc         1 8SG      -0.371300
     15 H1          -0.2610     1.1300    -0.0520 hn         1 8SG       0.349500
     16 H2          -3.5460    -1.9990     0.0610 ha         1 8SG       0.163000
     17 H3          -5.5550    -0.1770    -0.0330 ha         1 8SG       0.152000
     18 H4           5.5340     0.7670     0.8950 hc         1 8SG       0.056367
     19 H5           5.5470     0.6890    -0.8780 hc         1 8SG       0.056367
     20 H6           4.8600     2.1010    -0.0570 hc         1 8SG       0.056367
     21 H7           2.1800     2.0460    -0.0740 ha         1 8SG       0.152000
     22 H8          -4.3330     2.2680    -0.1320 h4         1 8SG       0.059100
@<TRIPOS>BOND
     1     1     2 1   
     2     1     3 1   
     3     1    15 1   
     4     2     9 2   
     5     2    13 1   
     6     3     4 1   
     7     3    12 2   
     8     4     5 2   
     9     4    11 1   
    10     5     6 1   
    11     5    16 1   
    12     6    10 2   
    13     6    17 1   
    14     7     8 1   
    15     7    18 1   
    16     7    19 1   
    17     7    20 1   
    18     8     9 1   
    19     8    14 2   
    20     9    21 1   
    21    10    11 1   
    22    10    22 1   
    23    13    14 1   
@<TRIPOS>SUBSTRUCTURE
     1 8SG         1 TEMP              0 ****  ****    0 ROOT
