@<TRIPOS>MOLECULE
8SG
   22    23     1     0     0
SMALL
bcc


@<TRIPOS>ATOM
      1 N1           0.0540     0.2870    -0.0110 ns         1 8SG      -0.546400
      2 C4           1.4170     0.1570    -0.0240 cc         1 8SG       0.431600
      3 C5          -0.8770    -0.7170    -0.0710 c          1 8SG       0.618600
      4 C6          -2.2670    -0.2640    -0.0310 cc         1 8SG       0.148200
      5 C7          -3.4210    -0.9830    -0.0550 cd         1 8SG      -0.169300
      6 C8          -4.4760    -0.0340     0.0070 cd         1 8SG      -0.282300
      7 C1           4.9690     0.8970     0.0030 c3         1 8SG      -0.134400
      8 C2           3.5780     0.3740    -0.0200 cd         1 8SG       0.368600
      9 C3           2.3750     1.1190     0.0110 cd         1 8SG      -0.471600
     10 C9          -3.8810     1.1850     0.0620 cc         1 8SG       0.265600
     11 O1          -2.5460     1.0570     0.0400 os         1 8SG      -0.332800
     12 O2          -0.6030    -1.8970    -0.1480 o          1 8SG      -0.519100
     13 O3           1.9710    -1.0460    -0.0710 os         1 8SG      -0.103100
     14 N2           3.3430    -0.9070    -0.0700 nc         1 8SG      -0.371300
     15 H1          -0.2710     1.2420     0.0500 hn         1 8SG       0.349500
     16 H2          -3.5080    -2.0550    -0.1090 ha         1 8SG       0.181000
     17 H3          -5.5350    -0.2300     0.0090 ha         1 8SG       0.170000
     18 H4           5.1570     1.4350     0.9310 hc         1 8SG       0.056367
     19 H5           5.6930     0.0900    -0.0820 hc         1 8SG       0.056367
     20 H6           5.1280     1.5950    -0.8180 hc         1 8SG       0.056367
     21 H7           2.2480     2.1880     0.0530 ha         1 8SG       0.170000
     22 H8          -4.2690     2.1890     0.1170 h4         1 8SG       0.059100
@<TRIPOS>BOND
     1     1     2 1   
     2     1     3 1   
     3     1    15 1   
     4     2     9 2   
     5     2    13 1   
     6     3     4 1   
     7     3    12 2   
     8     4     5 2   
     9     4    11 1   
    10     5     6 1   
    11     5    16 1   
    12     6    10 2   
    13     6    17 1   
    14     7     8 1   
    15     7    18 1   
    16     7    19 1   
    17     7    20 1   
    18     8     9 1   
    19     8    14 2   
    20     9    21 1   
    21    10    11 1   
    22    10    22 1   
    23    13    14 1   
@<TRIPOS>SUBSTRUCTURE
     1 8SG         1 TEMP              0 ****  ****    0 ROOT
