@<TRIPOS>MOLECULE
8SH
   45    45     1     0     0
SMALL
No Charge or Current Charge


@<TRIPOS>ATOM
      1 CAA         -0.2110    -2.9140     0.5080 c3         1 8SH      -0.097600
      2 CAB         -1.6670    -2.5060     0.8090 c3         1 8SH       0.223600
      3 OAC         -1.7440    -1.0790     0.9240 os         1 8SH      -0.608900
      4 PAD         -1.8230    -0.1120    -0.3710 p5         1 8SH       1.355800
      5 OAE         -1.0410    -0.5150    -1.5730 o          1 8SH      -0.574000
      6 OAF         -3.4220     0.0620    -0.5520 os         1 8SH      -0.608900
      7 CAG         -4.3030    -0.9500    -1.0680 c3         1 8SH       0.223600
      8 CAH         -3.8700    -1.4040    -2.4770 c3         1 8SH      -0.097600
      9 CAI         -1.2700     1.5020     0.3530 c3         1 8SH      -0.400700
     10 CAJ         -2.4100     2.2390     1.0960 c3         1 8SH       0.104600
     11 SAK         -3.4700     3.2690    -0.0180 sh         1 8SH      -0.412800
     12 CAL          0.0060     1.3960     1.2440 c3         1 8SH      -0.067400
     13 CAM          1.2570     0.8420     0.5210 c3         1 8SH      -0.089400
     14 CAN          2.5080     0.8030     1.4230 c3         1 8SH      -0.027100
     15 CAO          3.7080     0.2030     0.7030 ca         1 8SH      -0.080300
     16 CAP          4.6500     1.0370     0.0690 ca         1 8SH      -0.105000
     17 CAQ          5.7530     0.4790    -0.6010 ca         1 8SH      -0.107500
     18 CAR          5.9200    -0.9150    -0.6420 ca         1 8SH      -0.109000
     19 CAS          4.9820    -1.7520    -0.0140 ca         1 8SH      -0.107500
     20 CAT          3.8800    -1.1940     0.6560 ca         1 8SH      -0.105000
     21 HAA3        -0.1140    -4.0050     0.5500 hc         1 8SH       0.046033
     22 HAA1         0.1040    -2.5900    -0.4900 hc         1 8SH       0.046033
     23 HAA2         0.4710    -2.4830     1.2510 hc         1 8SH       0.046033
     24 HAB1        -2.3240    -2.8810     0.0140 h1         1 8SH       0.036700
     25 HAB2        -1.9810    -2.9720     1.7520 h1         1 8SH       0.036700
     26 HAG1        -4.3420    -1.8170    -0.3960 h1         1 8SH       0.036700
     27 HAG2        -5.3210    -0.5430    -1.1330 h1         1 8SH       0.036700
     28 HAH2        -2.9860    -2.0500    -2.4360 hc         1 8SH       0.046033
     29 HAH1        -4.6760    -1.9830    -2.9430 hc         1 8SH       0.046033
     30 HAH3        -3.6590    -0.5400    -3.1190 hc         1 8SH       0.046033
     31 HAI1        -1.0090     2.0880    -0.5340 hc         1 8SH       0.101700
     32 HAJ1        -3.0400     1.5240     1.6440 h1         1 8SH       0.066200
     33 HAJ2        -1.9820     2.9270     1.8370 h1         1 8SH       0.066200
     34 HAK1        -4.3040     3.7230     0.9490 hs         1 8SH       0.190800
     35 HAL1         0.2530     2.3940     1.6290 hc         1 8SH       0.043200
     36 HAL2        -0.2100     0.7730     2.1220 hc         1 8SH       0.043200
     37 HAM2         1.0640    -0.1740     0.1620 hc         1 8SH       0.058700
     38 HAM1         1.4710     1.4580    -0.3610 hc         1 8SH       0.058700
     39 HAN2         2.7390     1.8200     1.7650 hc         1 8SH       0.043700
     40 HAN1         2.2850     0.2190     2.3240 hc         1 8SH       0.043700
     41 HAP1         4.5270     2.1180     0.0940 ha         1 8SH       0.108000
     42 HAQ1         6.4780     1.1280    -1.0880 ha         1 8SH       0.111000
     43 HAR1         6.7730    -1.3470    -1.1610 ha         1 8SH       0.112000
     44 HAS1         5.1090    -2.8320    -0.0460 ha         1 8SH       0.111000
     45 HAT1         3.1570    -1.8490     1.1380 ha         1 8SH       0.108000
@<TRIPOS>BOND
     1     1     2 1   
     2     1    21 1   
     3     1    22 1   
     4     1    23 1   
     5     2     3 1   
     6     2    24 1   
     7     2    25 1   
     8     3     4 1   
     9     4     5 2   
    10     4     6 1   
    11     4     9 1   
    12     6     7 1   
    13     7     8 1   
    14     7    26 1   
    15     7    27 1   
    16     8    28 1   
    17     8    29 1   
    18     8    30 1   
    19     9    10 1   
    20     9    12 1   
    21     9    31 1   
    22    10    11 1   
    23    10    32 1   
    24    10    33 1   
    25    11    34 1   
    26    12    13 1   
    27    12    35 1   
    28    12    36 1   
    29    13    14 1   
    30    13    37 1   
    31    13    38 1   
    32    14    15 1   
    33    14    39 1   
    34    14    40 1   
    35    15    16 ar  
    36    15    20 ar  
    37    16    17 ar  
    38    16    41 1   
    39    17    18 ar  
    40    17    42 1   
    41    18    19 ar  
    42    18    43 1   
    43    19    20 ar  
    44    19    44 1   
    45    20    45 1   
@<TRIPOS>SUBSTRUCTURE
     1 8SH         1 TEMP              0 ****  ****    0 ROOT
