@<TRIPOS>MOLECULE
8SH
   45    45     1     0     0
SMALL
abcg2


@<TRIPOS>ATOM
      1 CAA         -1.1240    -2.8500     2.2750 c3         1 8SH      -0.097600
      2 CAB         -0.9210    -2.4510     0.8340 c3         1 8SH       0.223600
      3 OAC         -1.8520    -1.4050     0.5180 os         1 8SH      -0.608900
      4 PAD         -1.6200    -0.3760    -0.6990 p5         1 8SH       1.355800
      5 OAE         -0.7120    -0.8920    -1.7560 o          1 8SH      -0.574000
      6 OAF         -3.1200    -0.0660    -1.1530 os         1 8SH      -0.608900
      7 CAG         -3.9210    -1.0600    -1.8140 c3         1 8SH       0.223600
      8 CAH         -5.2570    -0.4480    -2.1560 c3         1 8SH      -0.097600
      9 CAI         -1.1370     1.1950     0.0810 c3         1 8SH      -0.400700
     10 CAJ         -2.2870     1.8270     0.8730 c3         1 8SH       0.104600
     11 SAK         -3.5610     2.6290    -0.1680 sh         1 8SH      -0.412800
     12 CAL          0.0860     1.0070     0.9950 c3         1 8SH      -0.067400
     13 CAM          1.3820     0.6150     0.2940 c3         1 8SH      -0.089400
     14 CAN          2.5590     0.5820     1.2720 c3         1 8SH      -0.027100
     15 CAO          3.8330     0.1630     0.5940 ca         1 8SH      -0.080300
     16 CAP          4.6460     1.1010    -0.0410 ca         1 8SH      -0.105000
     17 CAQ          5.7980     0.7090    -0.7100 ca         1 8SH      -0.107500
     18 CAR          6.1570    -0.6320    -0.7540 ca         1 8SH      -0.109000
     19 CAS          5.3550    -1.5760    -0.1250 ca         1 8SH      -0.107500
     20 CAT          4.2040    -1.1790     0.5420 ca         1 8SH      -0.105000
     21 HAA3        -0.4400    -3.6610     2.5260 hc         1 8SH       0.046033
     22 HAA1        -0.9190    -2.0190     2.9510 hc         1 8SH       0.046033
     23 HAA2        -2.1400    -3.2000     2.4540 hc         1 8SH       0.046033
     24 HAB1         0.1070    -2.1180     0.6750 h1         1 8SH       0.036700
     25 HAB2        -1.0970    -3.2980     0.1680 h1         1 8SH       0.036700
     26 HAG1        -3.4110    -1.4010    -2.7170 h1         1 8SH       0.036700
     27 HAG2        -4.0510    -1.9220    -1.1550 h1         1 8SH       0.036700
     28 HAH2        -5.1470     0.3930    -2.8400 hc         1 8SH       0.046033
     29 HAH1        -5.8810    -1.1990    -2.6400 hc         1 8SH       0.046033
     30 HAH3        -5.7760    -0.1030    -1.2620 hc         1 8SH       0.046033
     31 HAI1        -0.8570     1.8710    -0.7330 hc         1 8SH       0.101700
     32 HAJ1        -2.7680     1.1000     1.5270 h1         1 8SH       0.066200
     33 HAJ2        -1.8750     2.6030     1.5160 h1         1 8SH       0.066200
     34 HAK1        -3.4030     3.8620     0.3230 hs         1 8SH       0.190800
     35 HAL1         0.2490     1.9630     1.5000 hc         1 8SH       0.043200
     36 HAL2        -0.1450     0.2890     1.7880 hc         1 8SH       0.043200
     37 HAM2         1.2970    -0.3630    -0.1840 hc         1 8SH       0.058700
     38 HAM1         1.5920     1.3290    -0.5080 hc         1 8SH       0.058700
     39 HAN2         2.6830     1.5690     1.7260 hc         1 8SH       0.043700
     40 HAN1         2.3290    -0.1110     2.0860 hc         1 8SH       0.043700
     41 HAP1         4.3740     2.1500    -0.0080 ha         1 8SH       0.108000
     42 HAQ1         6.4180     1.4530    -1.1940 ha         1 8SH       0.111000
     43 HAR1         7.0560    -0.9390    -1.2720 ha         1 8SH       0.112000
     44 HAS1         5.6290    -2.6230    -0.1510 ha         1 8SH       0.111000
     45 HAT1         3.5880    -1.9220     1.0350 ha         1 8SH       0.108000
@<TRIPOS>BOND
     1     1     2 1   
     2     1    21 1   
     3     1    22 1   
     4     1    23 1   
     5     2     3 1   
     6     2    24 1   
     7     2    25 1   
     8     3     4 1   
     9     4     5 2   
    10     4     6 1   
    11     4     9 1   
    12     6     7 1   
    13     7     8 1   
    14     7    26 1   
    15     7    27 1   
    16     8    28 1   
    17     8    29 1   
    18     8    30 1   
    19     9    10 1   
    20     9    12 1   
    21     9    31 1   
    22    10    11 1   
    23    10    32 1   
    24    10    33 1   
    25    11    34 1   
    26    12    13 1   
    27    12    35 1   
    28    12    36 1   
    29    13    14 1   
    30    13    37 1   
    31    13    38 1   
    32    14    15 1   
    33    14    39 1   
    34    14    40 1   
    35    15    16 ar  
    36    15    20 ar  
    37    16    17 ar  
    38    16    41 1   
    39    17    18 ar  
    40    17    42 1   
    41    18    19 ar  
    42    18    43 1   
    43    19    20 ar  
    44    19    44 1   
    45    20    45 1   
@<TRIPOS>SUBSTRUCTURE
     1 8SH         1 TEMP              0 ****  ****    0 ROOT
