@<TRIPOS>MOLECULE
8SJ
   23    23     1     0     0
SMALL
No Charge or Current Charge


@<TRIPOS>ATOM
      1 N1           4.1460     0.0320    -0.3260 no         1 8SJ       0.693200
      2 N3          -4.5420    -0.0530     1.2440 n2         1 8SJ      -0.852100
      3 C4           1.9980    -1.2060     0.1790 ca         1 8SJ      -0.046000
      4 C5           2.6830     0.0190    -0.0020 ca         1 8SJ      -0.174200
      5 C6           1.9640     1.2300     0.1270 ca         1 8SJ      -0.046000
      6 C7           0.5910     1.2130     0.4300 ca         1 8SJ      -0.107000
      7 C8          -4.2330    -0.0820     0.0260 c2         1 8SJ       0.662100
      8 C2          -0.0850    -0.0070     0.6110 ca         1 8SJ      -0.039300
      9 C3           0.6250    -1.2150     0.4820 ca         1 8SJ      -0.107000
     10 O1           4.7340    -1.0530    -0.4290 o          1 8SJ      -0.398000
     11 O2           4.7030     1.1280    -0.4750 o          1 8SJ      -0.398000
     12 S1          -2.5810    -0.0710    -0.6100 ss         1 8SJ      -0.317200
     13 N2          -5.1530    -0.1250    -0.9480 nv         1 8SJ      -1.064200
     14 H1          -5.5650    -0.1090     1.3080 hn         1 8SJ       0.385400
     15 H2           2.5210    -2.1570     0.0850 ha         1 8SJ       0.153000
     16 H3           2.4600     2.1910    -0.0080 ha         1 8SJ       0.153000
     17 H4           0.0520     2.1530     0.5230 ha         1 8SJ       0.132500
     18 H5          -1.8120    -0.8980     1.5530 h1         1 8SJ       0.092700
     19 H6          -1.8380     0.8760     1.5130 h1         1 8SJ       0.092700
     20 H7           0.1120    -2.1650     0.6150 ha         1 8SJ       0.132500
     21 H8          -5.9640     0.4560    -0.7720 hn         1 8SJ       0.469500
     22 H9          -4.7550    -0.0060    -1.8730 hn         1 8SJ       0.469500
     23 C1          -1.5720    -0.0210     0.9380 c3         1 8SJ       0.112900
@<TRIPOS>BOND
     1     1     4 1   
     2     1    10 1   
     3     1    11 1   
     4     2     7 2   
     5     2    14 1   
     6     3     4 ar  
     7     3     9 ar  
     8     3    15 1   
     9     4     5 ar  
    10     5     6 ar  
    11     5    16 1   
    12     6     8 ar  
    13     6    17 1   
    14     7    12 1   
    15     7    13 1   
    16     8     9 ar  
    17     8    23 1   
    18     9    20 1   
    19    12    23 1   
    20    13    21 1   
    21    13    22 1   
    22    18    23 1   
    23    19    23 1   
@<TRIPOS>SUBSTRUCTURE
     1 8SJ         1 TEMP              0 ****  ****    0 ROOT
