@<TRIPOS>MOLECULE
8SJ
   23    23     1     0     0
SMALL
bcc


@<TRIPOS>ATOM
      1 N1           4.0010    -0.0140    -0.3690 no         1 8SJ       0.313200
      2 N3          -4.3920     0.0000     1.2290 n2         1 8SJ      -0.852100
      3 C4           1.9110    -1.1960     0.1260 ca         1 8SJ      -0.064000
      4 C5           2.5920     0.0060    -0.0090 ca         1 8SJ      -0.174200
      5 C6           1.9630     1.2260     0.1920 ca         1 8SJ      -0.064000
      6 C7           0.6210     1.2340     0.5280 ca         1 8SJ      -0.125000
      7 C8          -4.1330    -0.0760    -0.0110 c2         1 8SJ       0.662100
      8 C2          -0.0880     0.0450     0.6710 ca         1 8SJ      -0.039300
      9 C3           0.5710    -1.1660     0.4640 ca         1 8SJ      -0.125000
     10 O1           4.5320    -1.0880    -0.5280 o          1 8SJ      -0.208000
     11 O2           4.5710     1.0450    -0.4930 o          1 8SJ      -0.208000
     12 S1          -2.4460    -0.0910    -0.5680 ss         1 8SJ      -0.269300
     13 N2          -5.0010    -0.2140    -1.0520 nv         1 8SJ      -0.953800
     14 H1          -5.3950     0.0020     1.3970 hn         1 8SJ       0.385400
     15 H2           2.4060    -2.1430    -0.0300 ha         1 8SJ       0.171000
     16 H3           2.4980     2.1580     0.0880 ha         1 8SJ       0.171000
     17 H4           0.1210     2.1810     0.6870 ha         1 8SJ       0.150500
     18 H5          -1.8210    -0.7680     1.6530 h1         1 8SJ       0.092700
     19 H6          -1.8370     0.9930     1.4920 h1         1 8SJ       0.092700
     20 H7           0.0310    -2.0980     0.5720 ha         1 8SJ       0.150500
     21 H8          -5.9710    -0.0040    -0.8720 hn         1 8SJ       0.414300
     22 H9          -4.6990     0.0340    -1.9800 hn         1 8SJ       0.414300
     23 C1          -1.5480     0.0630     1.0050 c3         1 8SJ       0.065000
@<TRIPOS>BOND
     1     1     4 1   
     2     1    10 1   
     3     1    11 1   
     4     2     7 2   
     5     2    14 1   
     6     3     4 ar  
     7     3     9 ar  
     8     3    15 1   
     9     4     5 ar  
    10     5     6 ar  
    11     5    16 1   
    12     6     8 ar  
    13     6    17 1   
    14     7    12 1   
    15     7    13 1   
    16     8     9 ar  
    17     8    23 1   
    18     9    20 1   
    19    12    23 1   
    20    13    21 1   
    21    13    22 1   
    22    18    23 1   
    23    19    23 1   
@<TRIPOS>SUBSTRUCTURE
     1 8SJ         1 TEMP              0 ****  ****    0 ROOT
