@<TRIPOS>MOLECULE
8SL
   51    53     1     0     0
SMALL
abcg2


@<TRIPOS>ATOM
      1 C10          6.3810    -2.0190     1.1830 c3         1 8SL      -0.090100
      2 C13          1.2510     2.6070     1.3640 ca         1 8SL      -0.087000
      3 C15          1.5820     4.4680    -0.1240 ca         1 8SL      -0.097000
      4 C17          2.7010     2.3780    -0.5340 ca         1 8SL      -0.087000
      5 C20         -3.6700     0.3070    -1.4480 ca         1 8SL      -0.053500
      6 C21         -4.9360     0.7180    -1.0770 ca         1 8SL      -0.175500
      7 C22         -5.5870     0.1060    -0.0030 ca         1 8SL       0.150100
      8 C24         -3.6720    -1.3170     0.3020 ca         1 8SL      -0.053500
      9 C26         -7.5250    -0.0280     1.3590 c3         1 8SL       0.147900
     10 N01          1.2380    -1.6490    -1.6960 nc         1 8SL      -0.376000
     11 N02          2.5680    -1.9400    -1.7120 nc         1 8SL      -0.358000
     12 C03          3.1470    -1.2650    -0.7620 cd         1 8SL       0.392800
     13 N04          2.2120    -0.5250    -0.0990 na         1 8SL      -0.358000
     14 C05          1.0410    -0.8010    -0.7280 cd         1 8SL       0.485800
     15 S06         -0.4690    -0.0900    -0.2340 ss         1 8SL      -0.343300
     16 C07          4.5880    -1.3080    -0.4070 c3         1 8SL      -0.108700
     17 C08          4.9030    -2.1560     0.8370 c3         1 8SL      -0.057700
     18 C09          4.5210    -3.6160     0.6270 c3         1 8SL      -0.090100
     19 C11          2.4010     0.4040     0.9990 c3         1 8SL       0.122900
     20 C12          2.1070     1.8260     0.5980 ca         1 8SL      -0.119300
     21 C14          0.9900     3.9250     1.0070 ca         1 8SL      -0.109000
     22 C16          2.4390     3.6910    -0.8950 ca         1 8SL      -0.109000
     23 C18         -1.6380    -1.1490    -1.1600 c3         1 8SL       0.121900
     24 C19         -3.0180    -0.7220    -0.7680 ca         1 8SL      -0.130300
     25 C23         -4.9450    -0.9190     0.6890 ca         1 8SL      -0.175500
     26 H1           6.6510    -0.9800     1.3750 hc         1 8SL       0.037867
     27 H2           6.6310    -2.5980     2.0730 hc         1 8SL       0.037867
     28 H3           7.0080    -2.3820     0.3650 hc         1 8SL       0.037867
     29 H4           0.7790     2.1850     2.2430 ha         1 8SL       0.115500
     30 H5           1.3770     5.4920    -0.4060 ha         1 8SL       0.115000
     31 H6           3.3690     1.7820    -1.1450 ha         1 8SL       0.115500
     32 H7          -3.1820     0.7930    -2.2840 ha         1 8SL       0.118000
     33 H8          -5.4330     1.5130    -1.6190 ha         1 8SL       0.123500
     34 H9          -3.1860    -2.1150     0.8520 ha         1 8SL       0.118000
     35 H10         -8.4890     0.4720     1.4080 h1         1 8SL       0.041367
     36 H11         -7.6900    -1.0970     1.2010 h1         1 8SL       0.041367
     37 H12         -7.0080     0.1110     2.3130 h1         1 8SL       0.041367
     38 H13          5.1250    -1.7180    -1.2660 hc         1 8SL       0.064200
     39 H14          4.9660    -0.2910    -0.2660 hc         1 8SL       0.064200
     40 H15          4.3220    -1.7690     1.6820 hc         1 8SL       0.040700
     41 H16          5.0860    -4.0460    -0.2040 hc         1 8SL       0.037867
     42 H17          4.7410    -4.2050     1.5180 hc         1 8SL       0.037867
     43 H18          3.4610    -3.7370     0.4030 hc         1 8SL       0.037867
     44 H19          1.7690     0.0980     1.8350 h1         1 8SL       0.071200
     45 H20          3.4320     0.3080     1.3370 h1         1 8SL       0.071200
     46 H21          0.3170     4.5220     1.6080 ha         1 8SL       0.116000
     47 H22          2.9050     4.1090    -1.7780 ha         1 8SL       0.116000
     48 H23         -1.4610    -1.0160    -2.2260 h1         1 8SL       0.085200
     49 H24         -1.4460    -2.1890    -0.9010 h1         1 8SL       0.085200
     50 H25         -5.4160    -1.4200     1.5240 ha         1 8SL       0.123500
     51 O25         -6.8190     0.5620     0.2860 os         1 8SL      -0.340100
@<TRIPOS>BOND
     1     1    17 1   
     2     1    26 1   
     3     1    27 1   
     4     1    28 1   
     5     2    20 ar  
     6     2    21 ar  
     7     2    29 1   
     8     3    21 ar  
     9     3    22 ar  
    10     3    30 1   
    11     4    20 ar  
    12     4    22 ar  
    13     4    31 1   
    14     5     6 ar  
    15     5    24 ar  
    16     5    32 1   
    17     6     7 ar  
    18     6    33 1   
    19     7    25 ar  
    20     7    51 1   
    21     8    24 ar  
    22     8    25 ar  
    23     8    34 1   
    24     9    35 1   
    25     9    36 1   
    26     9    37 1   
    27     9    51 1   
    28    10    11 1   
    29    10    14 2   
    30    11    12 2   
    31    12    13 1   
    32    12    16 1   
    33    13    14 1   
    34    13    19 1   
    35    14    15 1   
    36    15    23 1   
    37    16    17 1   
    38    16    38 1   
    39    16    39 1   
    40    17    18 1   
    41    17    40 1   
    42    18    41 1   
    43    18    42 1   
    44    18    43 1   
    45    19    20 1   
    46    19    44 1   
    47    19    45 1   
    48    21    46 1   
    49    22    47 1   
    50    23    24 1   
    51    23    48 1   
    52    23    49 1   
    53    25    50 1   
@<TRIPOS>SUBSTRUCTURE
     1 8SL         1 TEMP              0 ****  ****    0 ROOT
