@<TRIPOS>MOLECULE
8SL
   51    53     1     0     0
SMALL
No Charge or Current Charge


@<TRIPOS>ATOM
      1 C10          6.6340    -1.8860     0.9970 c3         1 8SL      -0.090100
      2 C13          1.4760     2.7240     1.4600 ca         1 8SL      -0.087000
      3 C15          1.7940     4.4950    -0.1800 ca         1 8SL      -0.097000
      4 C17          2.7310     2.2820    -0.5770 ca         1 8SL      -0.087000
      5 C20         -3.7120     0.4410    -1.2880 ca         1 8SL      -0.053500
      6 C21         -5.0140     0.8630    -0.9690 ca         1 8SL      -0.175500
      7 C22         -5.7900     0.1430    -0.0470 ca         1 8SL       0.150100
      8 C24         -3.9500    -1.4350     0.2410 ca         1 8SL      -0.053500
      9 C26         -7.9360    -0.0570     1.1560 c3         1 8SL       0.147900
     10 N01          1.1560    -1.8880    -1.4560 nc         1 8SL      -0.376000
     11 N02          2.5180    -2.1090    -1.5580 nc         1 8SL      -0.358000
     12 C03          3.1190    -1.3460    -0.6480 cd         1 8SL       0.392800
     13 N04          2.1930    -0.6090     0.0530 na         1 8SL      -0.358000
     14 C05          1.0040    -0.9950    -0.4950 cd         1 8SL       0.485800
     15 S06         -0.5360    -0.3440     0.0750 ss         1 8SL      -0.343300
     16 C07          4.6170    -1.3050    -0.4600 c3         1 8SL      -0.108700
     17 C08          5.1230    -2.1130     0.7650 c3         1 8SL      -0.057700
     18 C09          4.8000    -3.6210     0.6500 c3         1 8SL      -0.090100
     19 C11          2.4200     0.3900     1.1130 c3         1 8SL       0.122900
     20 C12          2.2050     1.8290     0.6510 ca         1 8SL      -0.119300
     21 C14          1.2710     4.0510     1.0450 ca         1 8SL      -0.109000
     22 C16          2.5250     3.6100    -0.9900 ca         1 8SL      -0.109000
     23 C18         -1.7640    -1.1690    -1.0280 c3         1 8SL       0.121900
     24 C19         -3.1750    -0.7120    -0.6850 ca         1 8SL      -0.130300
     25 C23         -5.2530    -1.0120     0.5610 ca         1 8SL      -0.175500
     26 H1           6.8500    -0.8200     1.1390 hc         1 8SL       0.037867
     27 H2           6.9740    -2.4200     1.8930 hc         1 8SL       0.037867
     28 H3           7.2190    -2.2440     0.1410 hc         1 8SL       0.037867
     29 H4           1.0640     2.3910     2.4110 ha         1 8SL       0.115500
     30 H5           1.6350     5.5220    -0.5010 ha         1 8SL       0.115000
     31 H6           3.3020     1.6100    -1.2130 ha         1 8SL       0.115500
     32 H7          -3.1200     1.0110    -2.0020 ha         1 8SL       0.118000
     33 H8          -5.4230     1.7540    -1.4380 ha         1 8SL       0.123500
     34 H9          -3.5430    -2.3250     0.7170 ha         1 8SL       0.118000
     35 H10         -8.8930     0.4750     1.2230 h1         1 8SL       0.041367
     36 H11         -8.1410    -1.0860     0.8320 h1         1 8SL       0.041367
     37 H12         -7.4910    -0.0860     2.1590 h1         1 8SL       0.041367
     38 H13          5.1110    -1.6790    -1.3650 hc         1 8SL       0.064200
     39 H14          4.9340    -0.2600    -0.3590 hc         1 8SL       0.064200
     40 H15          4.6030    -1.7370     1.6550 hc         1 8SL       0.040700
     41 H16          5.2650    -4.0530    -0.2440 hc         1 8SL       0.037867
     42 H17          5.1730    -4.1640     1.5260 hc         1 8SL       0.037867
     43 H18          3.7180    -3.7880     0.5910 hc         1 8SL       0.037867
     44 H19          1.7460     0.1650     1.9490 h1         1 8SL       0.071200
     45 H20          3.4450     0.2940     1.4930 h1         1 8SL       0.071200
     46 H21          0.7050     4.7350     1.6740 ha         1 8SL       0.116000
     47 H22          2.9330     3.9530    -1.9390 ha         1 8SL       0.116000
     48 H23         -1.5340    -0.9230    -2.0730 h1         1 8SL       0.085200
     49 H24         -1.6820    -2.2580    -0.9110 h1         1 8SL       0.085200
     50 H25         -5.8260    -1.5910     1.2790 ha         1 8SL       0.123500
     51 O25         -7.0610     0.6070     0.2260 os         1 8SL      -0.340100
@<TRIPOS>BOND
     1     1    17 1   
     2     1    26 1   
     3     1    27 1   
     4     1    28 1   
     5     2    20 ar  
     6     2    21 ar  
     7     2    29 1   
     8     3    21 ar  
     9     3    22 ar  
    10     3    30 1   
    11     4    20 ar  
    12     4    22 ar  
    13     4    31 1   
    14     5     6 ar  
    15     5    24 ar  
    16     5    32 1   
    17     6     7 ar  
    18     6    33 1   
    19     7    25 ar  
    20     7    51 1   
    21     8    24 ar  
    22     8    25 ar  
    23     8    34 1   
    24     9    35 1   
    25     9    36 1   
    26     9    37 1   
    27     9    51 1   
    28    10    11 1   
    29    10    14 2   
    30    11    12 2   
    31    12    13 1   
    32    12    16 1   
    33    13    14 1   
    34    13    19 1   
    35    14    15 1   
    36    15    23 1   
    37    16    17 1   
    38    16    38 1   
    39    16    39 1   
    40    17    18 1   
    41    17    40 1   
    42    18    41 1   
    43    18    42 1   
    44    18    43 1   
    45    19    20 1   
    46    19    44 1   
    47    19    45 1   
    48    21    46 1   
    49    22    47 1   
    50    23    24 1   
    51    23    48 1   
    52    23    49 1   
    53    25    50 1   
@<TRIPOS>SUBSTRUCTURE
     1 8SL         1 TEMP              0 ****  ****    0 ROOT
