@<TRIPOS>MOLECULE
8SM
   29    31     1     0     0
SMALL
No Charge or Current Charge


@<TRIPOS>ATOM
      1 N1           2.2110    -1.7540    -0.1340 na         1 8SM       0.143800
      2 N3           2.3970    -0.3920    -0.1930 nc         1 8SM      -0.536800
      3 C4          -1.2970    -0.8640     0.0020 ca         1 8SM       0.442500
      4 C5          -2.0750    -1.9160     0.5270 ca         1 8SM      -0.163000
      5 C6          -3.4750    -1.8550     0.4430 ca         1 8SM      -0.072000
      6 C7          -4.0470    -0.7450    -0.1960 ca         1 8SM      -0.170000
      7 C8          -3.2040     0.2440    -0.7280 ca         1 8SM       0.345900
      8 C10          1.9050     2.3960    -0.4950 cc         1 8SM      -0.165500
      9 C13         -0.0120     2.0910     0.7550 cc         1 8SM      -0.165500
     10 C1           3.3690    -2.6550    -0.2110 c3         1 8SM       0.074900
     11 C2           0.8780    -2.1350    -0.0040 cc         1 8SM      -0.144000
     12 C3           0.1720    -0.9560    -0.0050 cd         1 8SM      -0.264500
     13 N2          -1.8560     0.1820    -0.6460 nb         1 8SM      -0.656000
     14 C9           1.1600     0.0650    -0.0960 cd         1 8SM       0.385500
     15 N4           0.9900     1.4610     0.0080 na         1 8SM       0.034500
     16 C11          1.4230     3.6170    -0.1080 cd         1 8SM      -0.183500
     17 C12          0.2530     3.4310     0.6570 cd         1 8SM      -0.183500
     18 H1          -1.5990    -2.7650     1.0080 ha         1 8SM       0.119000
     19 H2          -4.0970    -2.6470     0.8550 ha         1 8SM       0.118000
     20 H3          -5.1250    -0.6500    -0.2900 ha         1 8SM       0.124000
     21 H4          -3.6200     1.1090    -1.2420 h4         1 8SM       0.022100
     22 H6          -0.7880     1.5580     1.2890 h4         1 8SM       0.147500
     23 H7           3.8730    -2.5220    -1.1750 h1         1 8SM       0.060367
     24 H8           4.0680    -2.4240     0.6020 h1         1 8SM       0.060367
     25 H9           3.0370    -3.6960    -0.1170 h1         1 8SM       0.060367
     26 H10          0.5630    -3.1720     0.0300 h4         1 8SM       0.158000
     27 H11          1.8820     4.5750    -0.3380 ha         1 8SM       0.129000
     28 H12         -0.3340     4.2210     1.1170 ha         1 8SM       0.129000
     29 H5           2.7790     2.1230    -1.0740 h4         1 8SM       0.147500
@<TRIPOS>BOND
     1     1     2 1   
     2     1    10 1   
     3     1    11 1   
     4     2    14 2   
     5     3     4 ar  
     6     3    12 1   
     7     3    13 ar  
     8     4     5 ar  
     9     4    18 1   
    10     5     6 ar  
    11     5    19 1   
    12     6     7 ar  
    13     6    20 1   
    14     7    13 ar  
    15     7    21 1   
    16     8    15 1   
    17     8    16 2   
    18     8    29 1   
    19     9    15 1   
    20     9    17 2   
    21     9    22 1   
    22    10    23 1   
    23    10    24 1   
    24    10    25 1   
    25    11    12 2   
    26    11    26 1   
    27    12    14 1   
    28    14    15 1   
    29    16    17 1   
    30    16    27 1   
    31    17    28 1   
@<TRIPOS>SUBSTRUCTURE
     1 8SM         1 TEMP              0 ****  ****    0 ROOT
