@<TRIPOS>MOLECULE
8SM
   29    31     1     0     0
SMALL
abcg2


@<TRIPOS>ATOM
      1 N1           2.2170    -1.7720    -0.0790 na         1 8SM       0.143800
      2 N3           2.3750    -0.4540    -0.0130 nc         1 8SM      -0.536800
      3 C4          -1.2840    -0.8870    -0.0680 ca         1 8SM       0.442500
      4 C5          -2.0750    -1.8990     0.4790 ca         1 8SM      -0.163000
      5 C6          -3.4520    -1.7980     0.3870 ca         1 8SM      -0.072000
      6 C7          -4.0030    -0.6840    -0.2300 ca         1 8SM      -0.170000
      7 C8          -3.1360     0.2750    -0.7330 ca         1 8SM       0.345900
      8 C10          1.7170     2.3460    -0.6020 cc         1 8SM      -0.165500
      9 C13          0.0990     2.0710     0.9140 cc         1 8SM      -0.165500
     10 C1           3.3720    -2.6350    -0.1550 c3         1 8SM       0.074900
     11 C2           0.9300    -2.1330    -0.0730 cc         1 8SM      -0.144000
     12 C3           0.1750    -0.9750    -0.0240 cd         1 8SM      -0.264500
     13 N2          -1.8150     0.1790    -0.6640 nb         1 8SM      -0.656000
     14 C9           1.1550     0.0410     0.0120 cd         1 8SM       0.385500
     15 N4           0.9810     1.4220     0.0930 na         1 8SM       0.034500
     16 C11          1.2970     3.5920    -0.2260 cd         1 8SM      -0.183500
     17 C12          0.2690     3.4160     0.7420 cd         1 8SM      -0.183500
     18 H1          -1.6180    -2.7450     0.9750 ha         1 8SM       0.119000
     19 H2          -4.0850    -2.5710     0.8010 ha         1 8SM       0.118000
     20 H3          -5.0730    -0.5570    -0.3200 ha         1 8SM       0.124000
     21 H4          -3.5280     1.1610    -1.2200 h4         1 8SM       0.022100
     22 H6          -0.5670     1.5250     1.5610 h4         1 8SM       0.147500
     23 H7           3.9380    -2.4300    -1.0610 h1         1 8SM       0.060367
     24 H8           4.0110    -2.4860     0.7120 h1         1 8SM       0.060367
     25 H9           3.0350    -3.6670    -0.1730 h1         1 8SM       0.060367
     26 H10          0.6280    -3.1660    -0.1350 h4         1 8SM       0.158000
     27 H11          1.6800     4.5270    -0.6030 ha         1 8SM       0.129000
     28 H12         -0.2810     4.1910     1.2530 ha         1 8SM       0.129000
     29 H5           2.4680     2.0370    -1.3100 h4         1 8SM       0.147500
@<TRIPOS>BOND
     1     1     2 1   
     2     1    10 1   
     3     1    11 1   
     4     2    14 2   
     5     3     4 ar  
     6     3    12 1   
     7     3    13 ar  
     8     4     5 ar  
     9     4    18 1   
    10     5     6 ar  
    11     5    19 1   
    12     6     7 ar  
    13     6    20 1   
    14     7    13 ar  
    15     7    21 1   
    16     8    15 1   
    17     8    16 2   
    18     8    29 1   
    19     9    15 1   
    20     9    17 2   
    21     9    22 1   
    22    10    23 1   
    23    10    24 1   
    24    10    25 1   
    25    11    12 2   
    26    11    26 1   
    27    12    14 1   
    28    14    15 1   
    29    16    17 1   
    30    16    27 1   
    31    17    28 1   
@<TRIPOS>SUBSTRUCTURE
     1 8SM         1 TEMP              0 ****  ****    0 ROOT
