@<TRIPOS>MOLECULE
8SN
   35    37     1     0     0
SMALL
bcc


@<TRIPOS>ATOM
      1 N2           2.9120     0.8450    -1.0710 n7         1 8SN      -0.798200
      2 C22          4.1010     0.4300    -0.3110 c5         1 8SN       0.154800
      3 C23          3.6660    -0.7500     0.5650 c5         1 8SN      -0.095400
      4 C8           2.1680    -0.5170     0.7490 c5         1 8SN      -0.055500
      5 C21          1.7910     0.0340    -0.6330 c5         1 8SN       0.079500
      6 C25          0.5010     0.8140    -0.5460 c          1 8SN       0.711500
      7 O7           0.4900     2.0420    -0.5990 o          1 8SN      -0.662500
      8 C7           1.3910    -1.7260     1.1490 c2         1 8SN      -0.141200
      9 C6           0.1980    -2.0780     0.6820 c2         1 8SN      -0.162200
     10 C5          -0.7010    -1.3690    -0.2950 c5         1 8SN       0.166900
     11 C4          -2.1810    -1.6050     0.0680 c5         1 8SN      -0.080700
     12 C3          -2.8790    -0.3750    -0.4900 c5         1 8SN      -0.067400
     13 C2          -1.8890     0.7510    -0.2000 c5         1 8SN      -0.037300
     14 N1          -0.6070     0.0900    -0.3730 n          1 8SN      -0.426800
     15 C1          -2.0740     1.3310     1.2220 c          1 8SN       0.931600
     16 O2          -1.2490     1.0080     2.0910 o          1 8SN      -0.827300
     17 C47         -2.7190    -2.9270    -0.4480 c3         1 8SN      -0.079100
     18 O1          -3.0760     2.0630     1.3570 o          1 8SN      -0.827300
     19 H1           2.7000     1.8160    -0.8860 hn         1 8SN       0.381800
     20 H96          4.9190     0.1440    -0.9770 h1         1 8SN       0.029700
     21 H97          4.4690     1.2540     0.3060 h1         1 8SN       0.029700
     22 H23          3.8280    -1.6980     0.0460 hc         1 8SN       0.038700
     23 H95          4.2110    -0.7960     1.5080 hc         1 8SN       0.038700
     24 H8           2.0240     0.2770     1.4950 hc         1 8SN       0.093700
     25 H21          1.6540    -0.8180    -1.3150 h1         1 8SN       0.065700
     26 H7           1.8590    -2.3790     1.8800 ha         1 8SN       0.106000
     27 H6          -0.2120    -3.0220     1.0280 ha         1 8SN       0.108000
     28 H5          -0.5240    -1.7910    -1.2960 h1         1 8SN       0.031700
     29 H41         -2.2650    -1.5880     1.1600 hc         1 8SN       0.084700
     30 H32         -3.0260    -0.4820    -1.5700 hc         1 8SN       0.038700
     31 H31         -3.8560    -0.1950    -0.0430 hc         1 8SN       0.038700
     32 H22         -1.9930     1.5580    -0.9280 h1         1 8SN       0.067700
     33 H47         -2.1850    -3.7780    -0.0230 hc         1 8SN       0.021700
     34 H93         -3.7720    -3.0440    -0.1890 hc         1 8SN       0.021700
     35 H94         -2.6320    -2.9880    -1.5340 hc         1 8SN       0.021700
@<TRIPOS>BOND
     1     1     2 1   
     2     1     5 1   
     3     1    19 1   
     4     2     3 1   
     5     2    20 1   
     6     2    21 1   
     7     3     4 1   
     8     3    22 1   
     9     3    23 1   
    10     4     5 1   
    11     4     8 1   
    12     4    24 1   
    13     5     6 1   
    14     5    25 1   
    15     6     7 2   
    16     6    14 1   
    17     8     9 2   
    18     8    26 1   
    19     9    10 1   
    20     9    27 1   
    21    10    11 1   
    22    10    14 1   
    23    10    28 1   
    24    11    12 1   
    25    11    17 1   
    26    11    29 1   
    27    12    13 1   
    28    12    30 1   
    29    12    31 1   
    30    13    14 1   
    31    13    15 1   
    32    13    32 1   
    33    15    16 1   
    34    15    18 1   
    35    17    33 1   
    36    17    34 1   
    37    17    35 1   
@<TRIPOS>SUBSTRUCTURE
     1 8SN         1 TEMP              0 ****  ****    0 ROOT
