@<TRIPOS>MOLECULE
8SN
   35    37     1     0     0
SMALL
No Charge or Current Charge


@<TRIPOS>ATOM
      1 N2           3.0930     0.6810    -1.2340 n7         1 8SN      -0.853400
      2 C22          4.1370     0.4750    -0.2000 c5         1 8SN       0.154800
      3 C23          3.6880    -0.8030     0.5440 c5         1 8SN      -0.095400
      4 C8           2.1810    -0.4910     0.6980 c5         1 8SN      -0.055500
      5 C21          1.8500    -0.0300    -0.7460 c5         1 8SN       0.079500
      6 C25          0.5560     0.8570    -0.6680 c          1 8SN       0.569000
      7 O7           0.5090     2.0620    -0.9040 o          1 8SN      -0.587000
      8 C7           1.4350    -1.7560     1.1130 c2         1 8SN      -0.191200
      9 C6           0.2050    -2.1110     0.6810 c2         1 8SN      -0.212200
     10 C5          -0.6760    -1.3540    -0.3320 c5         1 8SN       0.166900
     11 C4          -2.1630    -1.6050     0.0820 c5         1 8SN      -0.080700
     12 C3          -2.8680    -0.3550    -0.4980 c5         1 8SN      -0.067400
     13 C2          -1.9020     0.7890    -0.0830 c5         1 8SN      -0.037300
     14 N1          -0.5690     0.1250    -0.2260 n          1 8SN      -0.359800
     15 C1          -2.2580     1.3100     1.3540 c          1 8SN       0.721000
     16 O2          -1.5780     0.9790     2.3160 o          1 8SN      -0.722000
     17 C47         -2.7600    -2.9410    -0.4170 c3         1 8SN      -0.079100
     18 O1          -3.1730     2.1150     1.4680 o          1 8SN      -0.722000
     19 H1           2.8980     1.6900    -1.3180 hn         1 8SN       0.437000
     20 H96          5.1370     0.3760    -0.6440 h1         1 8SN       0.029700
     21 H97          4.1570     1.3300     0.4900 h1         1 8SN       0.029700
     22 H23          3.8680    -1.7040    -0.0560 hc         1 8SN       0.038700
     23 H95          4.1990    -0.9300     1.5050 hc         1 8SN       0.038700
     24 H8           2.0230     0.3120     1.4310 hc         1 8SN       0.093700
     25 H21          1.6560    -0.8920    -1.4000 h1         1 8SN       0.065700
     26 H7           1.9230    -2.4190     1.8310 ha         1 8SN       0.156000
     27 H6          -0.1900    -3.0460     1.0780 ha         1 8SN       0.158000
     28 H5          -0.4920    -1.6800    -1.3650 h1         1 8SN       0.031700
     29 H41         -2.2630    -1.6060     1.1750 hc         1 8SN       0.084700
     30 H32         -2.9470    -0.4190    -1.5910 hc         1 8SN       0.038700
     31 H31         -3.8840    -0.2200    -0.1100 hc         1 8SN       0.038700
     32 H22         -2.0070     1.6400    -0.7680 h1         1 8SN       0.067700
     33 H47         -2.2330    -3.8000     0.0140 hc         1 8SN       0.021700
     34 H93         -3.8170    -3.0260    -0.1370 hc         1 8SN       0.021700
     35 H94         -2.6950    -3.0220    -1.5080 hc         1 8SN       0.021700
@<TRIPOS>BOND
     1     1     2 1   
     2     1     5 1   
     3     1    19 1   
     4     2     3 1   
     5     2    20 1   
     6     2    21 1   
     7     3     4 1   
     8     3    22 1   
     9     3    23 1   
    10     4     5 1   
    11     4     8 1   
    12     4    24 1   
    13     5     6 1   
    14     5    25 1   
    15     6     7 2   
    16     6    14 1   
    17     8     9 2   
    18     8    26 1   
    19     9    10 1   
    20     9    27 1   
    21    10    11 1   
    22    10    14 1   
    23    10    28 1   
    24    11    12 1   
    25    11    17 1   
    26    11    29 1   
    27    12    13 1   
    28    12    30 1   
    29    12    31 1   
    30    13    14 1   
    31    13    15 1   
    32    13    32 1   
    33    15    16 1   
    34    15    18 1   
    35    17    33 1   
    36    17    34 1   
    37    17    35 1   
@<TRIPOS>SUBSTRUCTURE
     1 8SN         1 TEMP              0 ****  ****    0 ROOT
