@<TRIPOS>MOLECULE
8SP
   74    73     1     0     0
SMALL
bcc


@<TRIPOS>ATOM
      1 N           -4.0310   -29.9350     5.6510 n8         1 8SP      -0.907800
      2 P           -1.7300   -26.0520     7.8270 p5         1 8SP       1.412800
      3 OG          -3.0760   -26.8540     7.3610 os         1 8SP      -0.548200
      4 C1A         -0.4620   -29.4710     3.9200 c          1 8SP       0.659100
      5 O1A         -0.9370   -29.4260     2.8140 o          1 8SP      -0.541000
      6 C1B          1.3730   -24.4770     3.1470 c          1 8SP       0.644100
      7 O1B          2.2460   -25.1720     2.6960 o          1 8SP      -0.577000
      8 CB          -2.9780   -28.1970     6.9200 c3         1 8SP       0.229400
      9 C1G         -0.0570   -27.1420     3.8970 c3         1 8SP       0.124400
     10 O1G          0.0680   -28.4130     4.5300 os         1 8SP      -0.419900
     11 C2A         -0.3940   -30.6940     4.7930 c3         1 8SP      -0.143400
     12 C2B          1.0480   -23.0830     2.6830 c3         1 8SP      -0.147400
     13 CA          -4.2390   -28.5790     6.1610 c3         1 8SP       0.003500
     14 C2G          0.7550   -26.1540     4.7260 c3         1 8SP       0.144100
     15 O2G          0.5670   -24.8570     4.1420 os         1 8SP      -0.383900
     16 O2P         -2.2020   -24.7120     8.2870 o          1 8SP      -0.841500
     17 C3A         -1.0570   -31.9170     4.1830 c3         1 8SP      -0.062400
     18 C3B          1.7880   -22.6700     1.4190 c3         1 8SP      -0.066400
     19 C           -4.5370   -27.5440     5.0510 c          1 8SP       0.926600
     20 O           -3.6990   -27.4990     4.1220 o          1 8SP      -0.849300
     21 OXT         -5.5690   -26.8570     5.1580 o          1 8SP      -0.849300
     22 C3G          0.3720   -26.0850     6.1900 c3         1 8SP       0.223400
     23 O3G         -1.0100   -25.8730     6.3420 os         1 8SP      -0.555200
     24 O3P         -0.8600   -26.9230     8.6810 o          1 8SP      -0.841500
     25 C4A         -1.0770   -33.0850     5.1610 c3         1 8SP      -0.077400
     26 C4B          1.4230   -21.2510     1.0020 c3         1 8SP      -0.076400
     27 C5A         -1.7040   -34.3530     4.5910 c3         1 8SP      -0.065400
     28 C5B          1.9900   -20.7970    -0.3410 c3         1 8SP      -0.069400
     29 C6A         -3.1960   -34.2370     4.3030 c3         1 8SP      -0.082400
     30 C6B          3.5200   -20.7690    -0.4420 c3         1 8SP      -0.070400
     31 C7A         -3.8030   -35.5380     3.7890 c3         1 8SP      -0.073400
     32 C7B          4.1540   -22.0480    -0.9840 c3         1 8SP      -0.080400
     33 C8A         -5.2930   -35.4220     3.5040 c3         1 8SP      -0.088100
     34 C8B          5.6680   -21.9390    -1.1030 c3         1 8SP      -0.086100
     35 HB3         -2.1180   -28.3320     6.2550 h1         1 8SP      -0.001300
     36 HB2         -2.8430   -28.8760     7.7680 h1         1 8SP      -0.001300
     37 H11G         0.3320   -27.1800     2.8780 h1         1 8SP       0.081200
     38 H21G        -1.1080   -26.8500     3.8580 h1         1 8SP       0.081200
     39 H           -4.9200   -30.3200     5.3540 hn         1 8SP       0.316300
     40 H12A         0.6560   -30.8960     5.0280 hc         1 8SP       0.074200
     41 H22A        -0.8640   -30.4490     5.7510 hc         1 8SP       0.074200
     42 H12B        -0.0330   -23.0070     2.5380 hc         1 8SP       0.076700
     43 H22B         1.2800   -22.3940     3.5030 hc         1 8SP       0.076700
     44 HA          -5.0780   -28.6120     6.8620 h1         1 8SP       0.037700
     45 H2G          1.8130   -26.4260     4.6890 h1         1 8SP       0.035700
     46 H2          -3.4790   -29.8590     4.8040 hn         1 8SP       0.316300
     47 H13A        -2.0770   -31.6650     3.8850 hc         1 8SP       0.049700
     48 H23A        -0.5320   -32.2120     3.2710 hc         1 8SP       0.049700
     49 H13B         2.8650   -22.7450     1.5840 hc         1 8SP       0.047200
     50 H23B         1.5480   -23.3650     0.6090 hc         1 8SP       0.047200
     51 H13G         0.6930   -27.0150     6.6630 h1         1 8SP       0.020700
     52 H23G         0.9560   -25.2800     6.6540 h1         1 8SP       0.020700
     53 H14A        -0.0520   -33.3030     5.4770 hc         1 8SP       0.040700
     54 H24A        -1.6180   -32.7880     6.0660 hc         1 8SP       0.040700
     55 H14B         0.3320   -21.1620     0.9620 hc         1 8SP       0.037700
     56 H24B         1.7520   -20.5550     1.7820 hc         1 8SP       0.037700
     57 H15A        -1.1760   -34.6370     3.6740 hc         1 8SP       0.020700
     58 H25A        -1.5450   -35.1740     5.2970 hc         1 8SP       0.020700
     59 H15B         1.5830   -21.4270    -1.1400 hc         1 8SP       0.032200
     60 H25B         1.6040   -19.7930    -0.5340 hc         1 8SP       0.032200
     61 H16A        -3.7180   -33.9300     5.2160 hc         1 8SP       0.054700
     62 H26A        -3.3810   -33.4470     3.5690 hc         1 8SP       0.054700
     63 H16B         3.8190   -19.9460    -1.0990 hc         1 8SP       0.029700
     64 H26B         3.9500   -20.5350     0.5380 hc         1 8SP       0.029700
     65 H17A        -3.2770   -35.8440     2.8790 hc         1 8SP       0.023700
     66 H27A        -3.6280   -36.3320     4.5210 hc         1 8SP       0.023700
     67 H17B         3.9000   -22.8990    -0.3480 hc         1 8SP       0.045700
     68 H27B         3.7240   -22.2680    -1.9660 hc         1 8SP       0.045700
     69 H18A        -5.7070   -36.3620     3.1390 hc         1 8SP       0.028700
     70 H28A        -5.8450   -35.1440     4.4040 hc         1 8SP       0.028700
     71 H38A        -5.4920   -34.6590     2.7490 hc         1 8SP       0.028700
     72 H18B         6.1080   -22.8570    -1.4940 hc         1 8SP       0.025367
     73 H28B         5.9520   -21.1240    -1.7720 hc         1 8SP       0.025367
     74 H38B         6.1260   -21.7400    -0.1320 hc         1 8SP       0.025367
@<TRIPOS>BOND
     1     1    13 1   
     2     1    39 1   
     3     1    46 1   
     4     2     3 1   
     5     2    16 1   
     6     2    23 1   
     7     2    24 1   
     8     3     8 1   
     9     4     5 2   
    10     4    10 1   
    11     4    11 1   
    12     6     7 2   
    13     6    12 1   
    14     6    15 1   
    15     8    13 1   
    16     8    35 1   
    17     8    36 1   
    18     9    10 1   
    19     9    14 1   
    20     9    37 1   
    21     9    38 1   
    22    11    17 1   
    23    11    40 1   
    24    11    41 1   
    25    12    18 1   
    26    12    42 1   
    27    12    43 1   
    28    13    19 1   
    29    13    44 1   
    30    14    15 1   
    31    14    22 1   
    32    14    45 1   
    33    17    25 1   
    34    17    47 1   
    35    17    48 1   
    36    18    26 1   
    37    18    49 1   
    38    18    50 1   
    39    19    20 1   
    40    19    21 1   
    41    22    23 1   
    42    22    51 1   
    43    22    52 1   
    44    25    27 1   
    45    25    53 1   
    46    25    54 1   
    47    26    28 1   
    48    26    55 1   
    49    26    56 1   
    50    27    29 1   
    51    27    57 1   
    52    27    58 1   
    53    28    30 1   
    54    28    59 1   
    55    28    60 1   
    56    29    31 1   
    57    29    61 1   
    58    29    62 1   
    59    30    32 1   
    60    30    63 1   
    61    30    64 1   
    62    31    33 1   
    63    31    65 1   
    64    31    66 1   
    65    32    34 1   
    66    32    67 1   
    67    32    68 1   
    68    33    69 1   
    69    33    70 1   
    70    33    71 1   
    71    34    72 1   
    72    34    73 1   
    73    34    74 1   
@<TRIPOS>SUBSTRUCTURE
     1 8SP         1 TEMP              0 ****  ****    0 ROOT
