@<TRIPOS>MOLECULE
8SQ
   29    30     1     0     0
SMALL
bcc


@<TRIPOS>ATOM
      1 C10         -1.1790     1.4980    -0.4990 ca         1 8SQ      -0.122000
      2 C13          3.0910     0.3280     0.0180 c          1 8SQ       0.668100
      3 C01         -2.8140    -0.1470     0.2400 ca         1 8SQ      -0.037000
      4 C02         -1.4930     0.1510    -0.1940 ca         1 8SQ      -0.027000
      5 C03         -0.5410    -0.9060    -0.3080 ca         1 8SQ      -0.072300
      6 C04         -0.9310    -2.1860    -0.0070 ca         1 8SQ      -0.124000
      7 C05         -2.2430    -2.4820     0.4170 ca         1 8SQ      -0.126000
      8 C06         -3.1650    -1.4830     0.5420 ca         1 8SQ      -0.114000
      9 C07         -3.7590     0.9000     0.3600 ca         1 8SQ      -0.118000
     10 C08         -3.4190     2.1910     0.0640 ca         1 8SQ      -0.125000
     11 C09         -2.1140     2.4900    -0.3730 ca         1 8SQ      -0.124000
     12 C11          0.8800    -0.6310    -0.7120 c3         1 8SQ      -0.023100
     13 C12          1.7070    -0.0920     0.4590 c3         1 8SQ      -0.159400
     14 N01          4.0700    -0.1080     0.8290 ns         1 8SQ      -0.459400
     15 O01          3.2900     1.0260    -0.9630 o          1 8SQ      -0.574100
     16 O02          5.3760     0.0950     0.5030 oh         1 8SQ      -0.382100
     17 H1          -0.1860     1.7580    -0.8410 ha         1 8SQ       0.139000
     18 H2          -0.2130    -2.9930    -0.0940 ha         1 8SQ       0.128000
     19 H3          -2.5110    -3.5060     0.6420 ha         1 8SQ       0.132000
     20 H4          -4.1750    -1.7030     0.8690 ha         1 8SQ       0.132000
     21 H5          -4.7620     0.6600     0.6920 ha         1 8SQ       0.130000
     22 H6          -4.1490     2.9840     0.1610 ha         1 8SQ       0.132000
     23 H7          -1.8480     3.5120    -0.6100 ha         1 8SQ       0.132000
     24 H8           1.3360    -1.5560    -1.0690 hc         1 8SQ       0.063700
     25 H9           0.9180     0.0710    -1.5470 hc         1 8SQ       0.063700
     26 H10          1.7500    -0.8400     1.2530 hc         1 8SQ       0.063700
     27 H11          1.2250     0.7860     0.8950 hc         1 8SQ       0.063700
     28 H12          3.9130    -0.7930     1.5540 hn         1 8SQ       0.335500
     29 H13          5.6560     0.8840     0.9840 ho         1 8SQ       0.404000
@<TRIPOS>BOND
     1     1     4 ar  
     2     1    11 ar  
     3     1    17 1   
     4     2    13 1   
     5     2    14 1   
     6     2    15 2   
     7     3     4 ar  
     8     3     8 ar  
     9     3     9 ar  
    10     4     5 ar  
    11     5     6 ar  
    12     5    12 1   
    13     6     7 ar  
    14     6    18 1   
    15     7     8 ar  
    16     7    19 1   
    17     8    20 1   
    18     9    10 ar  
    19     9    21 1   
    20    10    11 ar  
    21    10    22 1   
    22    11    23 1   
    23    12    13 1   
    24    12    24 1   
    25    12    25 1   
    26    13    26 1   
    27    13    27 1   
    28    14    16 1   
    29    14    28 1   
    30    16    29 1   
@<TRIPOS>SUBSTRUCTURE
     1 8SQ         1 TEMP              0 ****  ****    0 ROOT
