@<TRIPOS>MOLECULE
8SQ
   29    30     1     0     0
SMALL
No Charge or Current Charge


@<TRIPOS>ATOM
      1 C10         -1.3120     1.5630    -0.5210 ca         1 8SQ      -0.104000
      2 C13          3.1710     0.5090     0.1390 c          1 8SQ       0.601100
      3 C01         -2.8570    -0.1760     0.2040 ca         1 8SQ      -0.037000
      4 C02         -1.5460     0.2090    -0.1790 ca         1 8SQ      -0.027000
      5 C03         -0.5110    -0.7670    -0.2060 ca         1 8SQ      -0.072300
      6 C04         -0.8100    -2.0980     0.1540 ca         1 8SQ      -0.106000
      7 C05         -2.1090    -2.4680     0.5310 ca         1 8SQ      -0.108000
      8 C06         -3.1310    -1.5100     0.5550 ca         1 8SQ      -0.096000
      9 C07         -3.8970     0.7720     0.2380 ca         1 8SQ      -0.100000
     10 C08         -3.6480     2.1090    -0.1060 ca         1 8SQ      -0.107000
     11 C09         -2.3560     2.5030    -0.4840 ca         1 8SQ      -0.106000
     12 C11          0.9300    -0.4400    -0.6050 c3         1 8SQ      -0.023100
     13 C12          1.7340     0.1850     0.5590 c3         1 8SQ      -0.159400
     14 N01          4.1460    -0.3220     0.6780 ns         1 8SQ      -0.392400
     15 O01          3.4420     1.4570    -0.5870 o          1 8SQ      -0.574100
     16 O02          5.5080    -0.2930     0.1850 oh         1 8SQ      -0.421100
     17 H1          -0.3260     1.9100    -0.8160 ha         1 8SQ       0.121000
     18 H2          -0.0280    -2.8540     0.1430 ha         1 8SQ       0.110000
     19 H3          -2.3230    -3.4980     0.8050 ha         1 8SQ       0.114000
     20 H4          -4.1360    -1.8050     0.8490 ha         1 8SQ       0.114000
     21 H5          -4.9020     0.4740     0.5310 ha         1 8SQ       0.112000
     22 H6          -4.4540     2.8390    -0.0780 ha         1 8SQ       0.114000
     23 H7          -2.1620     3.5400    -0.7490 ha         1 8SQ       0.114000
     24 H8           1.4440    -1.3520    -0.9330 hc         1 8SQ       0.063700
     25 H9           0.9520     0.2240    -1.4780 hc         1 8SQ       0.063700
     26 H10          1.7370    -0.5240     1.3950 hc         1 8SQ       0.063700
     27 H11          1.2430     1.1140     0.8700 hc         1 8SQ       0.063700
     28 H12          3.8620    -1.1710     1.1650 hn         1 8SQ       0.335500
     29 H13          6.0510    -0.2250     1.0060 ho         1 8SQ       0.443000
@<TRIPOS>BOND
     1     1     4 ar  
     2     1    11 ar  
     3     1    17 1   
     4     2    13 1   
     5     2    14 1   
     6     2    15 2   
     7     3     4 ar  
     8     3     8 ar  
     9     3     9 ar  
    10     4     5 ar  
    11     5     6 ar  
    12     5    12 1   
    13     6     7 ar  
    14     6    18 1   
    15     7     8 ar  
    16     7    19 1   
    17     8    20 1   
    18     9    10 ar  
    19     9    21 1   
    20    10    11 ar  
    21    10    22 1   
    22    11    23 1   
    23    12    13 1   
    24    12    24 1   
    25    12    25 1   
    26    13    26 1   
    27    13    27 1   
    28    14    16 1   
    29    14    28 1   
    30    16    29 1   
@<TRIPOS>SUBSTRUCTURE
     1 8SQ         1 TEMP              0 ****  ****    0 ROOT
