@<TRIPOS>MOLECULE
8SR
   43    45     1     0     0
SMALL
bcc


@<TRIPOS>ATOM
      1 C4           3.6930    -1.4190     0.2930 cc         1 8SR      -0.104400
      2 C5          -4.5110     0.1270    -0.0580 cc         1 8SR       0.209600
      3 C6          -3.4090     0.9390     1.6550 cd         1 8SR      -0.067600
      4 C7           1.9680     0.3150    -0.0200 cc         1 8SR       0.131500
      5 C8           3.3480     2.0300    -1.1520 c          1 8SR       0.718700
      6 C10          5.6710    -0.2040    -0.6000 c6         1 8SR      -0.016100
      7 C13          5.8200    -2.6460    -0.0130 c6         1 8SR      -0.071400
      8 C15         -1.4700     1.7240     0.2980 c3         1 8SR      -0.027700
      9 C1          -4.5700     0.2720     1.3350 cc         1 8SR      -0.259300
     10 C2           3.1990     0.7120    -0.4990 cd         1 8SR      -0.253600
     11 C3           4.2020    -0.3030    -0.2910 cd         1 8SR      -0.053300
     12 C9          -0.3930     0.6560     0.3810 c          1 8SR       0.649100
     13 C11          4.4470    -2.6590     0.6530 c6         1 8SR       0.000900
     14 C12          6.4720    -1.2780     0.1330 c6         1 8SR      -0.072400
     15 C14         -2.8690     1.3690     2.9690 c3         1 8SR      -0.035800
     16 C16         -5.5260    -0.4820    -0.9520 c3         1 8SR       0.657600
     17 N17         -3.4180     0.6580    -0.5640 nd         1 8SR      -0.464800
     18 N18         -2.7720     1.1550     0.4810 na         1 8SR       0.129400
     19 N19          4.4330     2.2350    -1.9100 nt         1 8SR      -0.655000
     20 N20          0.8200     1.0730    -0.0420 ns         1 8SR      -0.448100
     21 O21          2.4940     2.9120    -1.0140 o          1 8SR      -0.665100
     22 O22         -0.6030    -0.4600     0.8120 o          1 8SR      -0.558100
     23 F23         -6.4280     0.4150    -1.3790 f          1 8SR      -0.229633
     24 F24         -4.9750    -1.0240    -2.0410 f          1 8SR      -0.229633
     25 F25         -6.2100    -1.4420    -0.3200 f          1 8SR      -0.229633
     26 S26          2.0020    -1.2790     0.6240 ss         1 8SR       0.015200
     27 H1           5.8370    -0.3190    -1.6780 hc         1 8SR       0.047200
     28 H2           6.0500     0.7830    -0.3270 hc         1 8SR       0.047200
     29 H3           6.4480    -3.4210     0.4290 hc         1 8SR       0.044700
     30 H4           5.7160    -2.8880    -1.0750 hc         1 8SR       0.044700
     31 H5          -1.2880     2.4750     1.0690 h1         1 8SR       0.095200
     32 H6          -1.4400     2.2360    -0.6630 h1         1 8SR       0.095200
     33 H7          -5.3370    -0.0570     2.0160 ha         1 8SR       0.177000
     34 H8           4.5600    -2.7260     1.7390 hc         1 8SR       0.052200
     35 H9           3.8890    -3.5490     0.3490 hc         1 8SR       0.052200
     36 H10          7.4910    -1.2950    -0.2570 hc         1 8SR       0.045200
     37 H11          6.5440    -1.0190     1.1930 hc         1 8SR       0.045200
     38 H12         -2.6430     2.4360     2.9870 hc         1 8SR       0.057033
     39 H13         -3.5980     1.1690     3.7500 hc         1 8SR       0.057033
     40 H14         -1.9530     0.8320     3.2210 hc         1 8SR       0.057033
     41 H15          5.0610     1.4980    -2.1740 hn         1 8SR       0.317500
     42 H16          4.5220     3.1070    -2.4080 hn         1 8SR       0.317500
     43 H17          0.9700     2.0220    -0.3810 hn         1 8SR       0.375500
@<TRIPOS>BOND
     1     1    11 2   
     2     1    13 1   
     3     1    26 1   
     4     2     9 1   
     5     2    16 1   
     6     2    17 2   
     7     3     9 2   
     8     3    15 1   
     9     3    18 1   
    10     4    10 2   
    11     4    20 1   
    12     4    26 1   
    13     5    10 1   
    14     5    19 1   
    15     5    21 2   
    16     6    11 1   
    17     6    14 1   
    18     6    27 1   
    19     6    28 1   
    20     7    13 1   
    21     7    14 1   
    22     7    29 1   
    23     7    30 1   
    24     8    12 1   
    25     8    18 1   
    26     8    31 1   
    27     8    32 1   
    28     9    33 1   
    29    10    11 1   
    30    12    20 1   
    31    12    22 2   
    32    13    34 1   
    33    13    35 1   
    34    14    36 1   
    35    14    37 1   
    36    15    38 1   
    37    15    39 1   
    38    15    40 1   
    39    16    23 1   
    40    16    24 1   
    41    16    25 1   
    42    17    18 1   
    43    19    41 1   
    44    19    42 1   
    45    20    43 1   
@<TRIPOS>SUBSTRUCTURE
     1 8SR         1 TEMP              0 ****  ****    0 ROOT
