@<TRIPOS>MOLECULE
8SR
   43    45     1     0     0
SMALL
No Charge or Current Charge


@<TRIPOS>ATOM
      1 C4           3.9020    -1.5750     0.3310 cc         1 8SR      -0.249300
      2 C5          -4.9200     0.3450    -0.0330 cc         1 8SR       0.144300
      3 C6          -3.4450     1.0040     1.4990 cd         1 8SR      -0.118300
      4 C7           2.0020     0.0060    -0.0730 cc         1 8SR      -0.013400
      5 C8           3.2940     1.9330    -1.0590 c          1 8SR       0.651700
      6 C10          5.7950    -0.0930    -0.4510 c6         1 8SR      -0.016100
      7 C13          6.1850    -2.5790    -0.0170 c6         1 8SR      -0.071400
      8 C15         -1.5480     1.3750    -0.1960 c3         1 8SR       0.001600
      9 C1          -4.7290     0.5870     1.3380 cc         1 8SR      -0.176000
     10 C2           3.2240     0.5530    -0.4520 cd         1 8SR      -0.253600
     11 C3           4.3150    -0.3660    -0.1880 cd         1 8SR      -0.053300
     12 C9          -0.4870     0.3100     0.1000 c          1 8SR       0.582100
     13 C11          4.8140    -2.7300     0.6780 c6         1 8SR       0.000900
     14 C12          6.7320    -1.1510     0.1860 c6         1 8SR      -0.072400
     15 C14         -2.7070     1.4030     2.7510 c3         1 8SR      -0.035800
     16 C16         -6.2500    -0.1360    -0.5940 c3         1 8SR       0.293700
     17 N17         -3.8360     0.5850    -0.7530 nd         1 8SR      -0.464800
     18 N18         -2.9100     0.9880     0.2020 na         1 8SR       0.150800
     19 N19          4.4900     2.3670    -1.4860 nt         1 8SR      -0.588000
     20 N20          0.8020     0.7010    -0.2170 ns         1 8SR      -0.381100
     21 O21          2.3340     2.6750    -1.2030 o          1 8SR      -0.665100
     22 O22         -0.7490    -0.7860     0.5790 o          1 8SR      -0.558100
     23 F23         -7.2410     0.7520    -0.3460 f          1 8SR      -0.108333
     24 F24         -6.2130    -0.3240    -1.9350 f          1 8SR      -0.108333
     25 F25         -6.6230    -1.3130    -0.0400 f          1 8SR      -0.108333
     26 S26          2.1690    -1.6280     0.5740 ss         1 8SR       0.305000
     27 H1           5.9780    -0.0700    -1.5340 hc         1 8SR       0.047200
     28 H2           6.0890     0.8860    -0.0520 hc         1 8SR       0.047200
     29 H3           6.8910    -3.3180     0.3850 hc         1 8SR       0.044700
     30 H4           6.0840    -2.7890    -1.0910 hc         1 8SR       0.044700
     31 H5          -1.2710     2.2930     0.3310 h1         1 8SR       0.095200
     32 H6          -1.5310     1.5800    -1.2730 h1         1 8SR       0.095200
     33 H7          -5.4820     0.4600     2.1100 ha         1 8SR       0.159000
     34 H8           4.9610    -2.7760     1.7660 hc         1 8SR       0.052200
     35 H9           4.3600    -3.6890     0.3900 hc         1 8SR       0.052200
     36 H10          7.7390    -1.0660    -0.2440 hc         1 8SR       0.045200
     37 H11          6.8350    -0.9510     1.2620 hc         1 8SR       0.045200
     38 H12         -2.3390     2.4330     2.6830 hc         1 8SR       0.057033
     39 H13         -3.3590     1.3410     3.6300 hc         1 8SR       0.057033
     40 H14         -1.8470     0.7470     2.9300 hc         1 8SR       0.057033
     41 H15          5.2980     1.7740    -1.4100 hn         1 8SR       0.317500
     42 H16          4.5570     3.2830    -1.9020 hn         1 8SR       0.317500
     43 H17          0.8800     1.6380    -0.6090 hn         1 8SR       0.375500
@<TRIPOS>BOND
     1     1    11 2   
     2     1    13 1   
     3     1    26 1   
     4     2     9 1   
     5     2    16 1   
     6     2    17 2   
     7     3     9 2   
     8     3    15 1   
     9     3    18 1   
    10     4    10 2   
    11     4    20 1   
    12     4    26 1   
    13     5    10 1   
    14     5    19 1   
    15     5    21 2   
    16     6    11 1   
    17     6    14 1   
    18     6    27 1   
    19     6    28 1   
    20     7    13 1   
    21     7    14 1   
    22     7    29 1   
    23     7    30 1   
    24     8    12 1   
    25     8    18 1   
    26     8    31 1   
    27     8    32 1   
    28     9    33 1   
    29    10    11 1   
    30    12    20 1   
    31    12    22 2   
    32    13    34 1   
    33    13    35 1   
    34    14    36 1   
    35    14    37 1   
    36    15    38 1   
    37    15    39 1   
    38    15    40 1   
    39    16    23 1   
    40    16    24 1   
    41    16    25 1   
    42    17    18 1   
    43    19    41 1   
    44    19    42 1   
    45    20    43 1   
@<TRIPOS>SUBSTRUCTURE
     1 8SR         1 TEMP              0 ****  ****    0 ROOT
