@<TRIPOS>MOLECULE
8SS
   21    22     1     0     0
SMALL
bcc


@<TRIPOS>ATOM
      1 N1          -4.6070     1.0110     0.1780 na         1 8SS      -0.000600
      2 N3          -3.2670    -2.1290    -0.2110 nv         1 8SS      -0.891500
      3 C4           1.0470     1.2340    -0.4060 ca         1 8SS      -0.099000
      4 C5          -0.3380     1.2700    -0.4150 ca         1 8SS      -0.133000
      5 C6          -1.1010     0.1950     0.0510 ca         1 8SS       0.033000
      6 C7          -2.5580     0.2680     0.0610 cc         1 8SS      -0.264300
      7 C8          -3.3340     1.4020     0.2130 cd         1 8SS      -0.095300
      8 C1          -0.4190    -0.9310     0.5210 ca         1 8SS      -0.133000
      9 C2           0.9670    -0.9870     0.5270 ca         1 8SS      -0.099000
     10 C3           1.6930     0.0990     0.0630 ca         1 8SS      -0.026900
     11 N2          -4.7470    -0.3090    -0.0010 nd         1 8SS      -0.579800
     12 C9          -3.5160    -0.7760    -0.0690 cc         1 8SS       0.546200
     13 BR1          3.5800     0.0350     0.0700 br         1 8SS      -0.103100
     14 H1          -5.4240     1.5900     0.2860 hn         1 8SS       0.325700
     15 H2          -2.4850    -2.3360    -0.8150 hn         1 8SS       0.389300
     16 H3          -4.0800    -2.6440    -0.5140 hn         1 8SS       0.389300
     17 H5          -0.8300     2.1510    -0.8060 ha         1 8SS       0.139000
     18 H6          -3.0580     2.4340     0.3610 h4         1 8SS       0.174000
     19 H7          -0.9700    -1.7760     0.9120 ha         1 8SS       0.139000
     20 H8           1.4620    -1.8720     0.9020 ha         1 8SS       0.145000
     21 H4           1.6050     2.0840    -0.7740 ha         1 8SS       0.145000
@<TRIPOS>BOND
     1     1     7 1   
     2     1    11 1   
     3     1    14 1   
     4     2    12 1   
     5     2    15 1   
     6     2    16 1   
     7     3     4 ar  
     8     3    10 ar  
     9     3    21 1   
    10     4     5 ar  
    11     4    17 1   
    12     5     6 1   
    13     5     8 ar  
    14     6     7 2   
    15     6    12 1   
    16     7    18 1   
    17     8     9 ar  
    18     8    19 1   
    19     9    10 ar  
    20     9    20 1   
    21    10    13 1   
    22    11    12 2   
@<TRIPOS>SUBSTRUCTURE
     1 8SS         1 TEMP              0 ****  ****    0 ROOT
