@<TRIPOS>MOLECULE
8SS
   21    22     1     0     0
SMALL
No Charge or Current Charge


@<TRIPOS>ATOM
      1 N1          -4.6260     1.0300     0.0870 na         1 8SS      -0.000200
      2 N3          -3.3650    -2.1060    -0.0850 nv         1 8SS      -1.001900
      3 C4           1.0490     1.3050    -0.2790 ca         1 8SS      -0.081000
      4 C5          -0.3560     1.3270    -0.3030 ca         1 8SS      -0.115000
      5 C6          -1.1110     0.1720     0.0140 ca         1 8SS       0.033000
      6 C7          -2.5870     0.2110    -0.0170 cc         1 8SS      -0.199000
      7 C8          -3.2710     1.3960     0.0530 cd         1 8SS      -0.128000
      8 C1          -0.4070    -1.0030     0.3680 ca         1 8SS      -0.115000
      9 C2           0.9990    -1.0260     0.3950 ca         1 8SS      -0.081000
     10 C3           1.7260     0.1270     0.0680 ca         1 8SS      -0.026900
     11 N2          -4.8080    -0.3550     0.0550 nd         1 8SS      -0.579800
     12 C9          -3.5820    -0.7860     0.0080 cc         1 8SS       0.480900
     13 Br1          3.6380     0.0960     0.1040 br         1 8SS      -0.103100
     14 H1          -5.4180     1.6720     0.1360 hn         1 8SS       0.376000
     15 H2          -2.4930    -2.4000    -0.5070 hn         1 8SS       0.444500
     16 H3          -4.1760    -2.6830    -0.2790 hn         1 8SS       0.444500
     17 H5          -0.8490     2.2500    -0.5910 ha         1 8SS       0.121000
     18 H6          -2.9410     2.4270     0.1030 h4         1 8SS       0.156000
     19 H7          -0.9350    -1.9040     0.6600 ha         1 8SS       0.121000
     20 H8           1.5220    -1.9370     0.6760 ha         1 8SS       0.127000
     21 H4           1.6110     2.2010    -0.5330 ha         1 8SS       0.127000
@<TRIPOS>BOND
     1     1     7 1   
     2     1    11 1   
     3     1    14 1   
     4     2    12 1   
     5     2    15 1   
     6     2    16 1   
     7     3     4 ar  
     8     3    10 ar  
     9     3    21 1   
    10     4     5 ar  
    11     4    17 1   
    12     5     6 1   
    13     5     8 ar  
    14     6     7 2   
    15     6    12 1   
    16     7    18 1   
    17     8     9 ar  
    18     8    19 1   
    19     9    10 ar  
    20     9    20 1   
    21    10    13 1   
    22    11    12 2   
@<TRIPOS>SUBSTRUCTURE
     1 8SS         1 TEMP              0 ****  ****    0 ROOT
