@<TRIPOS>MOLECULE
8ST
   40    42     1     0     0
SMALL
No Charge or Current Charge


@<TRIPOS>ATOM
      1 Cl16        -6.7800     1.3350     0.3300 cl         1 8ST      -0.203000
      2 C13         -5.2100     0.5470     0.2560 ca         1 8ST       0.091000
      3 C12         -5.0690    -0.7810     0.6870 ca         1 8ST      -0.075500
      4 C11         -3.8130    -1.4100     0.6270 ca         1 8ST      -0.144000
      5 C14         -4.0970     1.2440    -0.2390 ca         1 8ST      -0.075500
      6 C15         -2.8390     0.6150    -0.3000 ca         1 8ST      -0.144000
      7 C10         -2.6850    -0.7200     0.1400 ca         1 8ST      -0.015000
      8 N9          -1.4500    -1.4250     0.1050 ns         1 8ST      -0.139000
      9 C7          -0.1430    -1.0230    -0.1530 c          1 8ST       0.637700
     10 O8           0.1480     0.1470    -0.3810 o          1 8ST      -0.609100
     11 C2           0.9020    -2.1330    -0.1350 ca         1 8ST      -0.243600
     12 C3           2.2900    -1.8540    -0.2360 ca         1 8ST       0.382000
     13 C4           3.2270    -2.9020    -0.2200 ca         1 8ST      -0.207000
     14 C5           2.8140    -4.2350    -0.0970 ca         1 8ST      -0.037000
     15 C6           1.4510    -4.5250     0.0070 ca         1 8ST      -0.175000
     16 C1           0.5020    -3.4920    -0.0130 ca         1 8ST      -0.042000
     17 N17          2.7570    -0.5500    -0.3570 nu         1 8ST      -0.956200
     18 C18          3.9880    -0.0060     0.2270 c3         1 8ST       0.259100
     19 C19          4.0070     1.5060     0.0600 ca         1 8ST      -0.065300
     20 C24          4.6830     2.1150    -1.0130 ca         1 8ST      -0.151500
     21 C23          4.6670     3.5160    -1.1330 ca         1 8ST       0.334900
     22 N22          4.0250     4.3240    -0.2570 nb         1 8ST      -0.659000
     23 C21          3.3720     3.7390     0.7740 ca         1 8ST       0.334900
     24 C20          3.3370     2.3470     0.9680 ca         1 8ST      -0.151500
     25 H12         -5.9330    -1.3220     1.0680 ha         1 8ST       0.130000
     26 H11         -3.7180    -2.4400     0.9650 ha         1 8ST       0.132500
     27 H14         -4.2090     2.2710    -0.5780 ha         1 8ST       0.130000
     28 H15         -2.0040     1.1810    -0.6990 ha         1 8ST       0.132500
     29 HN9         -1.5430    -2.4090     0.3110 hn         1 8ST       0.157000
     30 H4           4.2880    -2.6890    -0.3090 ha         1 8ST       0.117000
     31 H5           3.5490    -5.0380    -0.0860 ha         1 8ST       0.113000
     32 H6           1.1240    -5.5590     0.0990 ha         1 8ST       0.120000
     33 H1          -0.5450    -3.7760     0.0600 ha         1 8ST       0.110000
     34 HN17         1.9860     0.1240    -0.4430 hn         1 8ST       0.516000
     35 H18          4.0380    -0.2500     1.2980 h1         1 8ST       0.049700
     36 H18A         4.8720    -0.4430    -0.2580 h1         1 8ST       0.049700
     37 H24          5.2120     1.5180    -1.7500 ha         1 8ST       0.128500
     38 H23          5.1850     4.0070    -1.9570 h4         1 8ST       0.020600
     39 H21          2.8600     4.4080     1.4650 h4         1 8ST       0.020600
     40 H20          2.7930     1.9350     1.8130 ha         1 8ST       0.128500
@<TRIPOS>BOND
     1     1     2 1   
     2     2     3 ar  
     3     2     5 ar  
     4     3     4 ar  
     5     3    25 1   
     6     4     7 ar  
     7     4    26 1   
     8     5     6 ar  
     9     5    27 1   
    10     6     7 ar  
    11     6    28 1   
    12     7     8 1   
    13     8     9 1   
    14     8    29 1   
    15     9    10 2   
    16     9    11 1   
    17    11    12 ar  
    18    11    16 ar  
    19    12    13 ar  
    20    12    17 1   
    21    13    14 ar  
    22    13    30 1   
    23    14    15 ar  
    24    14    31 1   
    25    15    16 ar  
    26    15    32 1   
    27    16    33 1   
    28    17    18 1   
    29    17    34 1   
    30    18    19 1   
    31    18    35 1   
    32    18    36 1   
    33    19    20 ar  
    34    19    24 ar  
    35    20    21 ar  
    36    20    37 1   
    37    21    22 ar  
    38    21    38 1   
    39    22    23 ar  
    40    23    24 ar  
    41    23    39 1   
    42    24    40 1   
@<TRIPOS>SUBSTRUCTURE
     1 8ST         1 TEMP              0 ****  ****    0 ROOT
