@<TRIPOS>MOLECULE
8ST
   40    42     1     0     0
SMALL
abcg2


@<TRIPOS>ATOM
      1 CL16        -6.7120     1.2620     0.3260 cl         1 8ST      -0.203000
      2 C13         -5.1600     0.4920     0.2670 ca         1 8ST       0.091000
      3 C12         -4.9170    -0.6250     1.0510 ca         1 8ST      -0.075500
      4 C11         -3.6760    -1.2320     0.9990 ca         1 8ST      -0.144000
      5 C14         -4.1710     0.9930    -0.5610 ca         1 8ST      -0.075500
      6 C15         -2.9250     0.3840    -0.6140 ca         1 8ST      -0.144000
      7 C10         -2.6630    -0.7400     0.1710 ca         1 8ST      -0.015000
      8 N9          -1.4540    -1.4370     0.1860 ns         1 8ST      -0.139000
      9 C7          -0.2740    -1.1230    -0.4100 c          1 8ST       0.637700
     10 O8          -0.1000    -0.0800    -1.0270 o          1 8ST      -0.609100
     11 C2           0.7970    -2.1400    -0.2440 ca         1 8ST      -0.243600
     12 C3           2.1580    -1.7440    -0.1570 ca         1 8ST       0.382000
     13 C4           3.1210    -2.7530     0.0130 ca         1 8ST      -0.207000
     14 C5           2.7620    -4.0870     0.0700 ca         1 8ST      -0.037000
     15 C6           1.4350    -4.4760    -0.0480 ca         1 8ST      -0.175000
     16 C1           0.4710    -3.4960    -0.2030 ca         1 8ST      -0.042000
     17 N17          2.5140    -0.4260    -0.1900 nu         1 8ST      -0.956200
     18 C18          3.8890     0.0010    -0.2010 c3         1 8ST       0.259100
     19 C19          3.9860     1.4950    -0.0660 ca         1 8ST      -0.065300
     20 C24          4.9160     2.2170    -0.8040 ca         1 8ST      -0.151500
     21 C23          5.0000     3.5890    -0.6270 ca         1 8ST       0.334900
     22 N22          4.2320     4.2690     0.2150 nb         1 8ST      -0.659000
     23 C21          3.3420     3.5780     0.9180 ca         1 8ST       0.334900
     24 C20          3.1800     2.2050     0.8170 ca         1 8ST      -0.151500
     25 H12         -5.6830    -1.0250     1.7010 ha         1 8ST       0.130000
     26 H11         -3.4960    -2.1060     1.6130 ha         1 8ST       0.132500
     27 H14         -4.3580     1.8630    -1.1760 ha         1 8ST       0.130000
     28 H15         -2.1780     0.7980    -1.2680 ha         1 8ST       0.132500
     29 HN9         -1.4500    -2.2540     0.7780 hn         1 8ST       0.157000
     30 H4           4.1690    -2.4980     0.0820 ha         1 8ST       0.117000
     31 H5           3.5380    -4.8320     0.1900 ha         1 8ST       0.113000
     32 H6           1.1570    -5.5200    -0.0270 ha         1 8ST       0.120000
     33 H1          -0.5610    -3.8000    -0.3220 ha         1 8ST       0.110000
     34 HN17         1.8620     0.1780    -0.6670 hn         1 8ST       0.516000
     35 H18          4.4160    -0.4480     0.6470 h1         1 8ST       0.049700
     36 H18A         4.4230    -0.3220    -1.1040 h1         1 8ST       0.049700
     37 H24          5.5690     1.7250    -1.5130 ha         1 8ST       0.128500
     38 H23          5.7230     4.1620    -1.1970 h4         1 8ST       0.020600
     39 H21          2.7220     4.1450     1.6030 h4         1 8ST       0.020600
     40 H20          2.4350     1.7060     1.4230 ha         1 8ST       0.128500
@<TRIPOS>BOND
     1     1     2 1   
     2     2     3 ar  
     3     2     5 ar  
     4     3     4 ar  
     5     3    25 1   
     6     4     7 ar  
     7     4    26 1   
     8     5     6 ar  
     9     5    27 1   
    10     6     7 ar  
    11     6    28 1   
    12     7     8 1   
    13     8     9 1   
    14     8    29 1   
    15     9    10 2   
    16     9    11 1   
    17    11    12 ar  
    18    11    16 ar  
    19    12    13 ar  
    20    12    17 1   
    21    13    14 ar  
    22    13    30 1   
    23    14    15 ar  
    24    14    31 1   
    25    15    16 ar  
    26    15    32 1   
    27    16    33 1   
    28    17    18 1   
    29    17    34 1   
    30    18    19 1   
    31    18    35 1   
    32    18    36 1   
    33    19    20 ar  
    34    19    24 ar  
    35    20    21 ar  
    36    20    37 1   
    37    21    22 ar  
    38    21    38 1   
    39    22    23 ar  
    40    23    24 ar  
    41    23    39 1   
    42    24    40 1   
@<TRIPOS>SUBSTRUCTURE
     1 8ST         1 TEMP              0 ****  ****    0 ROOT
