@<TRIPOS>MOLECULE
8SU
   53    53     1     0     0
SMALL
bcc


@<TRIPOS>ATOM
      1 O9          -2.0170    -4.9250    -0.1370 o          1 8SU      -0.515100
      2 C9          -1.0170    -4.2600    -0.3070 c          1 8SU       0.569300
      3 C10          0.3010    -4.7640    -0.7110 ce         1 8SU      -0.267200
      4 C11          1.1170    -3.7380    -0.9570 c2         1 8SU      -0.106200
      5 C12          0.4670    -2.3980    -0.7540 c5         1 8SU      -0.015300
      6 C13          1.2930    -1.4780     0.0910 c2         1 8SU      -0.153200
      7 C14          1.7710    -0.3140    -0.3340 c2         1 8SU      -0.191200
      8 C15          2.6570     0.6130     0.4490 c3         1 8SU       0.177300
      9 C16          3.9570     0.8540    -0.3240 c3         1 8SU      -0.108400
     10 C17          4.9210     1.8180     0.3550 c3         1 8SU      -0.072400
     11 C18          6.1700     2.0690    -0.4810 c3         1 8SU      -0.076400
     12 C19          7.1780     2.9880     0.2000 c3         1 8SU      -0.075400
     13 C20          8.4230     3.2220    -0.6440 c3         1 8SU      -0.088100
     14 O15          2.8860     0.1780     1.7680 oh         1 8SU      -0.584800
     15 C8          -0.9050    -2.7510    -0.1470 c5         1 8SU      -0.163700
     16 C7          -2.0580    -1.9400    -0.7470 c3         1 8SU      -0.013200
     17 C6          -3.3590    -2.0740    -0.0160 c2         1 8SU      -0.207200
     18 C5          -3.9310    -1.1440     0.7480 c2         1 8SU      -0.126200
     19 C4          -3.4170     0.2270     1.0560 c3         1 8SU      -0.062200
     20 C3          -4.1890     1.3240     0.3170 c3         1 8SU      -0.048400
     21 C2          -3.7120     2.7160     0.6990 c3         1 8SU      -0.205400
     22 C1          -4.4310     3.8890     0.0110 c          1 8SU       0.926600
     23 O1          -3.9010     5.0130     0.1490 o          1 8SU      -0.847800
     24 O2          -5.4830     3.6440    -0.6120 o          1 8SU      -0.847800
     25 H1           0.5340    -5.8140    -0.8230 ha         1 8SU       0.152000
     26 H3           2.1440    -3.8230    -1.2910 ha         1 8SU       0.134000
     27 H5           0.3290    -1.9370    -1.7400 hc         1 8SU       0.072700
     28 H6           1.4930    -1.8200     1.1030 ha         1 8SU       0.127000
     29 H8           1.5510     0.0110    -1.3490 ha         1 8SU       0.127000
     30 H10          2.1400     1.5770     0.5430 h1         1 8SU       0.093700
     31 H11          4.4550    -0.1080    -0.4960 hc         1 8SU       0.041200
     32 H12          3.6970     1.2390    -1.3160 hc         1 8SU       0.041200
     33 H13          4.4130     2.7700     0.5480 hc         1 8SU       0.046700
     34 H14          5.2130     1.4240     1.3320 hc         1 8SU       0.046700
     35 H15          6.6530     1.1120    -0.7080 hc         1 8SU       0.034700
     36 H16          5.8850     2.4990    -1.4470 hc         1 8SU       0.034700
     37 H17          6.7000     3.9460     0.4260 hc         1 8SU       0.038700
     38 H18          7.4620     2.5560     1.1640 hc         1 8SU       0.038700
     39 H19          8.9330     2.2810    -0.8610 hc         1 8SU       0.029033
     40 H20          8.1690     3.6850    -1.6000 hc         1 8SU       0.029033
     41 H21          9.1360     3.8760    -0.1410 hc         1 8SU       0.029033
     42 H22          3.4530    -0.6010     1.7370 ho         1 8SU       0.394000
     43 H23         -0.8690    -2.5600     0.9340 hc         1 8SU       0.086700
     44 H24         -1.7420    -0.8950    -0.7750 hc         1 8SU       0.049200
     45 H25         -2.1950    -2.2430    -1.7900 hc         1 8SU       0.049200
     46 H26         -3.8720    -3.0220    -0.1300 ha         1 8SU       0.120000
     47 H27         -4.8930    -1.3870     1.1920 ha         1 8SU       0.110000
     48 H28         -3.5070     0.3980     2.1340 hc         1 8SU       0.033700
     49 H29         -2.3530     0.3140     0.8250 hc         1 8SU       0.033700
     50 H30         -4.0770     1.1710    -0.7600 hc         1 8SU       0.041200
     51 H31         -5.2560     1.2250     0.5290 hc         1 8SU       0.041200
     52 H32         -3.8190     2.8470     1.7840 hc         1 8SU       0.014700
     53 H33         -2.6370     2.8040     0.5100 hc         1 8SU       0.014700
@<TRIPOS>BOND
     1     1     2 2   
     2     2     3 1   
     3     2    15 1   
     4     3     4 2   
     5     3    25 1   
     6     4     5 1   
     7     4    26 1   
     8     5     6 1   
     9     5    15 1   
    10     5    27 1   
    11     6     7 2   
    12     6    28 1   
    13     7     8 1   
    14     7    29 1   
    15     8     9 1   
    16     8    14 1   
    17     8    30 1   
    18     9    10 1   
    19     9    31 1   
    20     9    32 1   
    21    10    11 1   
    22    10    33 1   
    23    10    34 1   
    24    11    12 1   
    25    11    35 1   
    26    11    36 1   
    27    12    13 1   
    28    12    37 1   
    29    12    38 1   
    30    13    39 1   
    31    13    40 1   
    32    13    41 1   
    33    14    42 1   
    34    15    16 1   
    35    15    43 1   
    36    16    17 1   
    37    16    44 1   
    38    16    45 1   
    39    17    18 2   
    40    17    46 1   
    41    18    19 1   
    42    18    47 1   
    43    19    20 1   
    44    19    48 1   
    45    19    49 1   
    46    20    21 1   
    47    20    50 1   
    48    20    51 1   
    49    21    22 1   
    50    21    52 1   
    51    21    53 1   
    52    22    23 1   
    53    22    24 1   
@<TRIPOS>SUBSTRUCTURE
     1 8SU         1 TEMP              0 ****  ****    0 ROOT
