@<TRIPOS>MOLECULE
8SU
   53    53     1     0     0
SMALL
No Charge or Current Charge


@<TRIPOS>ATOM
      1 O9          -0.5620    -4.1410     1.2280 o          1 8SU      -0.515100
      2 C9          -0.3540    -3.5300     0.1890 c          1 8SU       0.569300
      3 C10          0.3910    -4.0270    -0.9790 ce         1 8SU      -0.317200
      4 C11          0.8620    -3.0710    -1.7990 c2         1 8SU      -0.156200
      5 C12          0.4670    -1.7160    -1.2280 c5         1 8SU      -0.015300
      6 C13          1.6230    -1.0720    -0.4750 c2         1 8SU      -0.203200
      7 C14          1.5880     0.2500    -0.2190 c2         1 8SU      -0.241200
      8 C15          2.6460     1.0510     0.5070 c3         1 8SU       0.200500
      9 C16          4.0470     0.9020    -0.1330 c3         1 8SU      -0.108400
     10 C17          5.1190     1.8390     0.4730 c3         1 8SU      -0.072400
     11 C18          6.4980     1.7000    -0.2090 c3         1 8SU      -0.076400
     12 C19          7.5690     2.6350     0.3940 c3         1 8SU      -0.075400
     13 C20          8.9440     2.4950    -0.2870 c3         1 8SU      -0.088100
     14 O15          2.6780     0.6030     1.8600 oh         1 8SU      -0.647000
     15 C8          -0.6570    -2.0690    -0.1870 c5         1 8SU      -0.163700
     16 C7          -2.0820    -1.9460    -0.7830 c3         1 8SU      -0.013200
     17 C6          -3.1810    -2.2670     0.2130 c2         1 8SU      -0.257200
     18 C5          -3.8200    -1.3960     1.0140 c2         1 8SU      -0.176200
     19 C4          -3.5580     0.0940     1.1290 c3         1 8SU      -0.062200
     20 C3          -4.5700     0.9270     0.3140 c3         1 8SU      -0.048400
     21 C2          -4.3250     2.4530     0.4100 c3         1 8SU      -0.205400
     22 C1          -5.3760     3.2120    -0.4200 c          1 8SU       0.716000
     23 O1          -5.1360     3.4270    -1.5980 o          1 8SU      -0.742500
     24 O2          -6.4250     3.5240     0.1230 o          1 8SU      -0.742500
     25 H1           0.5930    -5.0920    -1.0800 ha         1 8SU       0.202000
     26 H3           1.4710    -3.2410    -2.6900 ha         1 8SU       0.184000
     27 H5           0.0990    -1.0470    -2.0170 hc         1 8SU       0.072700
     28 H6           2.4740    -1.6770    -0.1570 ha         1 8SU       0.177000
     29 H8           0.7370     0.8520    -0.5440 ha         1 8SU       0.177000
     30 H10          2.3670     2.1150     0.4690 h1         1 8SU       0.093700
     31 H11          4.3850    -0.1380    -0.0460 hc         1 8SU       0.041200
     32 H12          3.9620     1.1160    -1.2060 hc         1 8SU       0.041200
     33 H13          4.7780     2.8790     0.3880 hc         1 8SU       0.046700
     34 H14          5.2270     1.6250     1.5440 hc         1 8SU       0.046700
     35 H15          6.8380     0.6600    -0.1240 hc         1 8SU       0.034700
     36 H16          6.3930     1.9160    -1.2800 hc         1 8SU       0.034700
     37 H17          7.2330     3.6750     0.3090 hc         1 8SU       0.038700
     38 H18          7.6780     2.4200     1.4640 hc         1 8SU       0.038700
     39 H19          9.3240     1.4710    -0.1880 hc         1 8SU       0.029033
     40 H20          8.8750     2.7380    -1.3540 hc         1 8SU       0.029033
     41 H21          9.6690     3.1770     0.1740 hc         1 8SU       0.029033
     42 H22          2.4810    -0.3560     1.8260 ho         1 8SU       0.433000
     43 H23         -0.6420    -1.4510     0.7170 hc         1 8SU       0.086700
     44 H24         -2.2210    -0.9280    -1.1690 hc         1 8SU       0.049200
     45 H25         -2.1810    -2.6000    -1.6590 hc         1 8SU       0.049200
     46 H26         -3.4630    -3.3220     0.2340 ha         1 8SU       0.170000
     47 H27         -4.6050    -1.7560     1.6820 ha         1 8SU       0.160000
     48 H28         -3.6060     0.3950     2.1830 hc         1 8SU       0.033700
     49 H29         -2.5430     0.3380     0.7920 hc         1 8SU       0.033700
     50 H30         -4.5210     0.6190    -0.7380 hc         1 8SU       0.041200
     51 H31         -5.5850     0.7010     0.6650 hc         1 8SU       0.041200
     52 H32         -4.4200     2.7060     1.4740 hc         1 8SU       0.014700
     53 H33         -3.3200     2.6220     0.0050 hc         1 8SU       0.014700
@<TRIPOS>BOND
     1     1     2 2   
     2     2     3 1   
     3     2    15 1   
     4     3     4 2   
     5     3    25 1   
     6     4     5 1   
     7     4    26 1   
     8     5     6 1   
     9     5    15 1   
    10     5    27 1   
    11     6     7 2   
    12     6    28 1   
    13     7     8 1   
    14     7    29 1   
    15     8     9 1   
    16     8    14 1   
    17     8    30 1   
    18     9    10 1   
    19     9    31 1   
    20     9    32 1   
    21    10    11 1   
    22    10    33 1   
    23    10    34 1   
    24    11    12 1   
    25    11    35 1   
    26    11    36 1   
    27    12    13 1   
    28    12    37 1   
    29    12    38 1   
    30    13    39 1   
    31    13    40 1   
    32    13    41 1   
    33    14    42 1   
    34    15    16 1   
    35    15    43 1   
    36    16    17 1   
    37    16    44 1   
    38    16    45 1   
    39    17    18 2   
    40    17    46 1   
    41    18    19 1   
    42    18    47 1   
    43    19    20 1   
    44    19    48 1   
    45    19    49 1   
    46    20    21 1   
    47    20    50 1   
    48    20    51 1   
    49    21    22 1   
    50    21    52 1   
    51    21    53 1   
    52    22    23 1   
    53    22    24 1   
@<TRIPOS>SUBSTRUCTURE
     1 8SU         1 TEMP              0 ****  ****    0 ROOT
