@<TRIPOS>MOLECULE
8SV
   29    30     1     0     0
SMALL
bcc


@<TRIPOS>ATOM
      1 N1           2.5650    -1.6710     0.0460 nu         1 8SV      -0.754600
      2 N3          -2.1330     1.1990    -0.0410 n          1 8SV      -0.358000
      3 C4          -0.9150    -0.6830     0.0030 ca         1 8SV       0.120600
      4 C5          -0.8360     0.7240    -0.0220 ca         1 8SV      -0.072400
      5 C6           0.3680     1.3480    -0.0230 ca         1 8SV      -0.013000
      6 C7           1.5390     0.5550     0.0020 ca         1 8SV      -0.310200
      7 C8          -2.5060     2.5890    -0.0670 c3         1 8SV       0.106300
      8 C1           2.5090    -3.1090     0.0750 c3         1 8SV       0.211100
      9 C2           1.4830    -0.8760     0.0270 ca         1 8SV       0.304600
     10 C3           0.2000    -1.4770     0.0280 ca         1 8SV      -0.275000
     11 O1           2.7530     2.4760    -0.0270 o          1 8SV      -0.245500
     12 O2           3.8230     0.6350     0.0290 o          1 8SV      -0.245500
     13 C9          -3.0100     0.1470    -0.0290 c          1 8SV       0.812500
     14 N4          -2.2380    -1.0070    -0.0010 n          1 8SV      -0.362000
     15 O3          -4.2230     0.1960    -0.0390 o          1 8SV      -0.622500
     16 H1           3.4650    -1.2260     0.0540 hn         1 8SV       0.482800
     17 H2           0.4440     2.4250    -0.0410 ha         1 8SV       0.175000
     18 H3          -3.5890     2.6670    -0.0780 h1         1 8SV       0.054367
     19 H4          -2.1270     3.1050     0.8150 h1         1 8SV       0.054367
     20 H5          -2.1120     3.0760    -0.9590 h1         1 8SV       0.054367
     21 H6          -2.4490    -2.8690     0.9230 h1         1 8SV       0.055033
     22 H7          -3.8510    -2.3040     0.0060 h1         1 8SV       0.055033
     23 H8          -2.4260    -2.9060    -0.8510 h1         1 8SV       0.055033
     24 H9           2.0000    -3.4850     0.9650 h1         1 8SV       0.044367
     25 H10          2.0060    -3.5190    -0.8040 h1         1 8SV       0.044367
     26 H11          3.5290    -3.4840     0.0850 h1         1 8SV       0.044367
     27 H12          0.1020    -2.5520     0.0490 ha         1 8SV       0.151000
     28 N2           2.7670     1.2580     0.0010 no         1 8SV       0.332200
     29 C10         -2.7660    -2.3480     0.0200 c3         1 8SV       0.100300
@<TRIPOS>BOND
     1     1     8 1   
     2     1     9 1   
     3     1    16 1   
     4     2     4 1   
     5     2     7 1   
     6     2    13 1   
     7     3     4 ar  
     8     3    10 ar  
     9     3    14 1   
    10     4     5 ar  
    11     5     6 ar  
    12     5    17 1   
    13     6     9 ar  
    14     6    28 1   
    15     7    18 1   
    16     7    19 1   
    17     7    20 1   
    18     8    24 1   
    19     8    25 1   
    20     8    26 1   
    21     9    10 ar  
    22    10    27 1   
    23    11    28 1   
    24    12    28 1   
    25    13    14 1   
    26    13    15 2   
    27    14    29 1   
    28    21    29 1   
    29    22    29 1   
    30    23    29 1   
@<TRIPOS>SUBSTRUCTURE
     1 8SV         1 TEMP              0 ****  ****    0 ROOT
