@<TRIPOS>MOLECULE
8SV
   29    30     1     0     0
SMALL
No Charge or Current Charge


@<TRIPOS>ATOM
      1 N1           2.5870    -1.6820    -0.0340 nu         1 8SV      -0.948200
      2 N3          -2.1590     1.2140    -0.1310 n          1 8SV      -0.291000
      3 C4          -0.9510    -0.6780     0.1220 ca         1 8SV       0.120600
      4 C5          -0.8550     0.7030     0.1300 ca         1 8SV      -0.072400
      5 C6           0.3850     1.3420     0.0280 ca         1 8SV       0.005000
      6 C7           1.5610     0.5460     0.0370 ca         1 8SV      -0.310200
      7 C8          -2.5540     2.6250     0.0290 c3         1 8SV       0.106300
      8 C1           2.6580    -3.1480     0.1120 c3         1 8SV       0.211100
      9 C2           1.4550    -0.8720     0.0300 ca         1 8SV       0.443000
     10 C3           0.1840    -1.4820     0.0130 ca         1 8SV      -0.257000
     11 O1           2.9110     2.3630    -0.5410 o          1 8SV      -0.435500
     12 O2           3.8570     0.7070     0.5110 o          1 8SV      -0.435500
     13 C9          -3.0730     0.1600    -0.2710 c          1 8SV       0.603000
     14 N4          -2.3070    -1.0070    -0.1440 n          1 8SV      -0.295000
     15 O3          -4.2830     0.2410    -0.4290 o          1 8SV      -0.547000
     16 H1           3.4650    -1.1680     0.1000 hn         1 8SV       0.538000
     17 H2           0.4290     2.4270    -0.0560 ha         1 8SV       0.157000
     18 H3          -3.5890     2.6900     0.3890 h1         1 8SV       0.054367
     19 H4          -1.8950     3.1170     0.7550 h1         1 8SV       0.054367
     20 H5          -2.4760     3.1390    -0.9370 h1         1 8SV       0.054367
     21 H6          -2.2950    -2.9370     0.7180 h1         1 8SV       0.055033
     22 H7          -3.9180    -2.2880     0.3600 h1         1 8SV       0.055033
     23 H8          -2.8720    -2.8630    -0.9730 h1         1 8SV       0.055033
     24 H9           2.2480    -3.4590     1.0830 h1         1 8SV       0.044367
     25 H10          2.0890    -3.6460    -0.6850 h1         1 8SV       0.044367
     26 H11          3.7010    -3.4890     0.0520 h1         1 8SV       0.044367
     27 H12          0.0740    -2.5550    -0.0910 ha         1 8SV       0.133000
     28 N2           2.8770     1.2370    -0.0290 no         1 8SV       0.712200
     29 C10         -2.8840    -2.3540    -0.0010 c3         1 8SV       0.100300
@<TRIPOS>BOND
     1     1     8 1   
     2     1     9 1   
     3     1    16 1   
     4     2     4 1   
     5     2     7 1   
     6     2    13 1   
     7     3     4 ar  
     8     3    10 ar  
     9     3    14 1   
    10     4     5 ar  
    11     5     6 ar  
    12     5    17 1   
    13     6     9 ar  
    14     6    28 1   
    15     7    18 1   
    16     7    19 1   
    17     7    20 1   
    18     8    24 1   
    19     8    25 1   
    20     8    26 1   
    21     9    10 ar  
    22    10    27 1   
    23    11    28 1   
    24    12    28 1   
    25    13    14 1   
    26    13    15 2   
    27    14    29 1   
    28    21    29 1   
    29    22    29 1   
    30    23    29 1   
@<TRIPOS>SUBSTRUCTURE
     1 8SV         1 TEMP              0 ****  ****    0 ROOT
