@<TRIPOS>MOLECULE
8SW
   82    84     1     0     0
SMALL
No Charge or Current Charge


@<TRIPOS>ATOM
      1 OAM          1.6960    -2.4250     1.8250 oh         1 8SW      -0.577100
      2 CBS          2.4640    -1.4180     2.3400 ca         1 8SW       0.131100
      3 CBP          2.3800    -1.1330     3.7200 ca         1 8SW       0.095100
      4 OAJ          1.5470    -1.8720     4.5120 oh         1 8SW      -0.534100
      5 CAT          3.1380    -0.0940     4.2740 ca         1 8SW      -0.095000
      6 CAQ          3.9850     0.6630     3.4500 ca         1 8SW      -0.129000
      7 CAW          4.0820     0.3790     2.0770 ca         1 8SW      -0.084000
      8 CBV          3.3250    -0.6720     1.4980 ca         1 8SW      -0.226600
      9 CBK          3.4050    -0.9870     0.0190 c          1 8SW       0.631700
     10 OAE          2.6450    -1.7950    -0.5020 o          1 8SW      -0.658100
     11 NBG          4.3460    -0.3090    -0.7200 ns         1 8SW      -0.468900
     12 CBX          4.4400    -0.3280    -2.2030 c3         1 8SW       0.008700
     13 CBL          5.9210    -0.2240    -2.6510 c          1 8SW       0.592100
     14 OAF          6.8260     0.1130    -1.8980 o          1 8SW      -0.566100
     15 NBB          6.1600    -0.5400    -3.9700 ns         1 8SW      -0.504900
     16 CAX          7.4780    -0.5020    -4.5930 c3         1 8SW       0.192100
     17 CAN          7.3530    -0.8630    -6.0100 c1         1 8SW      -0.177100
     18 CAA          7.2200    -1.1620    -7.1760 c1         1 8SW      -0.214000
     19 CBA          3.5970     0.8070    -2.8520 c3         1 8SW       0.088000
     20 NBE          2.2180     0.8640    -2.3430 ns         1 8SW      -0.503900
     21 C            1.8360     1.5620    -1.2140 c          1 8SW       0.582100
     22 O            2.6100     2.3120    -0.6330 o          1 8SW      -0.587100
     23 CA           0.3890     1.2770    -0.7300 c3         1 8SW       0.012700
     24 N            0.2500     1.5430     0.7310 ns         1 8SW      -0.469900
     25 CBJ          0.1390     2.7740     1.3400 c          1 8SW       0.643700
     26 OAD          0.0780     3.8180     0.7020 o          1 8SW      -0.649100
     27 CBU          0.0940     2.7760     2.8550 ca         1 8SW      -0.233600
     28 CAV          0.0810     1.5670     3.6000 ca         1 8SW      -0.085000
     29 CAP          0.0530     1.5860     5.0050 ca         1 8SW      -0.123000
     30 CAS          0.0360     2.8050     5.6980 ca         1 8SW      -0.091000
     31 CBO          0.0430     4.0090     4.9820 ca         1 8SW       0.100100
     32 OAI          0.0240     5.2030     5.6480 oh         1 8SW      -0.531100
     33 CBR          0.0710     3.9990     3.5700 ca         1 8SW       0.131100
     34 OAL          0.0780     5.1910     2.9000 oh         1 8SW      -0.576100
     35 CB          -0.6500     2.0120    -1.6160 c3         1 8SW       0.110000
     36 NBD         -2.0340     1.7880    -1.1760 ns         1 8SW      -0.486900
     37 CBH         -2.7170     0.6010    -1.3200 c          1 8SW       0.588100
     38 OAB         -2.2200    -0.3700    -1.8760 o          1 8SW      -0.622100
     39 CAY         -4.1460     0.5950    -0.7330 c3         1 8SW       0.017000
     40 NBC         -4.8110    -0.7130    -0.9250 ns         1 8SW      -0.471900
     41 CBI         -6.0840    -1.0110    -0.5050 c          1 8SW       0.629700
     42 OAC         -6.7690    -0.1760     0.0760 o          1 8SW      -0.658100
     43 CBT         -6.5990    -2.4060    -0.7890 ca         1 8SW      -0.231600
     44 CAU         -5.8040    -3.3710    -1.4610 ca         1 8SW      -0.080000
     45 CAO         -6.2990    -4.6620    -1.7160 ca         1 8SW      -0.126000
     46 CAR         -7.5940    -5.0180    -1.3090 ca         1 8SW      -0.093000
     47 CBN         -8.3950    -4.0800    -0.6450 ca         1 8SW       0.095100
     48 OAH         -9.6580    -4.4180    -0.2450 oh         1 8SW      -0.534100
     49 CBQ         -7.9040    -2.7820    -0.3850 ca         1 8SW       0.135100
     50 OAK         -8.7090    -1.8880     0.2650 oh         1 8SW      -0.580100
     51 H1           1.8830    -2.4290     0.8440 ho         1 8SW       0.531000
     52 H2           1.1350    -2.5430     3.9210 ho         1 8SW       0.486000
     53 H3           3.0660     0.1280     5.3360 ha         1 8SW       0.131000
     54 H4           4.5700     1.4760     3.8780 ha         1 8SW       0.124000
     55 H5           4.7430     0.9990     1.4760 ha         1 8SW       0.122000
     56 H6           4.9610     0.3130    -0.2120 hn         1 8SW       0.356500
     57 H7           4.0640    -1.2930    -2.5660 h1         1 8SW       0.073700
     58 H8           5.3720    -0.8270    -4.5370 hn         1 8SW       0.316500
     59 H9           7.9000     0.5080    -4.5040 h1         1 8SW       0.072200
     60 H10          8.1460    -1.2120    -4.0870 h1         1 8SW       0.072200
     61 H11          7.1160    -1.4270    -8.2100 ha         1 8SW       0.256000
     62 H12          4.0860     1.7730    -2.6670 h1         1 8SW       0.077700
     63 H13          3.5630     0.6630    -3.9410 h1         1 8SW       0.077700
     64 H14          1.5290     0.2430    -2.7530 hn         1 8SW       0.321500
     65 H15          0.2340     0.2000    -0.8690 h1         1 8SW       0.081700
     66 H16          0.3050     0.7520     1.3570 hn         1 8SW       0.330500
     67 H17          0.0880     0.5980     3.1090 ha         1 8SW       0.109000
     68 H18          0.0460     0.6490     5.5580 ha         1 8SW       0.124000
     69 H19          0.0160     2.8170     6.7850 ha         1 8SW       0.136000
     70 H20          0.0340     5.9020     4.9550 ho         1 8SW       0.487000
     71 H21          0.0810     4.9520     1.9310 ho         1 8SW       0.529000
     72 H22         -0.4490     3.0910    -1.6200 h1         1 8SW       0.074200
     73 H23         -0.5520     1.6660    -2.6540 h1         1 8SW       0.074200
     74 H24         -2.5170     2.5440    -0.7030 hn         1 8SW       0.337500
     75 H25         -4.0820     0.8240     0.3380 h1         1 8SW       0.076200
     76 H26         -4.7280     1.3820    -1.2290 h1         1 8SW       0.076200
     77 H27         -4.2970    -1.4460    -1.3990 hn         1 8SW       0.350500
     78 H28         -4.7950    -3.1410    -1.7950 ha         1 8SW       0.111000
     79 H29         -5.6760    -5.3890    -2.2320 ha         1 8SW       0.121000
     80 H30         -7.9750    -6.0180    -1.5080 ha         1 8SW       0.133000
     81 H31        -10.0290    -3.6180     0.1930 ho         1 8SW       0.486000
     82 H32         -8.1700    -1.0510     0.3420 ho         1 8SW       0.534000
@<TRIPOS>BOND
     1     1     2 1   
     2     1    51 1   
     3     2     3 ar  
     4     2     8 ar  
     5     3     4 1   
     6     3     5 ar  
     7     4    52 1   
     8     5     6 ar  
     9     5    53 1   
    10     6     7 ar  
    11     6    54 1   
    12     7     8 ar  
    13     7    55 1   
    14     8     9 1   
    15     9    10 2   
    16     9    11 1   
    17    11    12 1   
    18    11    56 1   
    19    12    13 1   
    20    12    19 1   
    21    12    57 1   
    22    13    14 2   
    23    13    15 1   
    24    15    16 1   
    25    15    58 1   
    26    16    17 1   
    27    16    59 1   
    28    16    60 1   
    29    17    18 3   
    30    18    61 1   
    31    19    20 1   
    32    19    62 1   
    33    19    63 1   
    34    20    21 1   
    35    20    64 1   
    36    21    22 2   
    37    21    23 1   
    38    23    24 1   
    39    23    35 1   
    40    23    65 1   
    41    24    25 1   
    42    24    66 1   
    43    25    26 2   
    44    25    27 1   
    45    27    28 ar  
    46    27    33 ar  
    47    28    29 ar  
    48    28    67 1   
    49    29    30 ar  
    50    29    68 1   
    51    30    31 ar  
    52    30    69 1   
    53    31    32 1   
    54    31    33 ar  
    55    32    70 1   
    56    33    34 1   
    57    34    71 1   
    58    35    36 1   
    59    35    72 1   
    60    35    73 1   
    61    36    37 1   
    62    36    74 1   
    63    37    38 2   
    64    37    39 1   
    65    39    40 1   
    66    39    75 1   
    67    39    76 1   
    68    40    41 1   
    69    40    77 1   
    70    41    42 2   
    71    41    43 1   
    72    43    44 ar  
    73    43    49 ar  
    74    44    45 ar  
    75    44    78 1   
    76    45    46 ar  
    77    45    79 1   
    78    46    47 ar  
    79    46    80 1   
    80    47    48 1   
    81    47    49 ar  
    82    48    81 1   
    83    49    50 1   
    84    50    82 1   
@<TRIPOS>SUBSTRUCTURE
     1 8SW         1 TEMP              0 ****  ****    0 ROOT
