@<TRIPOS>MOLECULE
8SW
   82    84     1     0     0
SMALL
abcg2


@<TRIPOS>ATOM
      1 OAM          5.9770    -2.7680     2.3420 oh         1 8SW      -0.577100
      2 CBS          5.2020    -1.7400     2.7070 ca         1 8SW       0.131100
      3 CBP          5.0800    -1.5110     4.0890 ca         1 8SW       0.095100
      4 OAJ          5.7280    -2.2930     4.9750 oh         1 8SW      -0.534100
      5 CAT          4.2820    -0.4800     4.5440 ca         1 8SW      -0.095000
      6 CAQ          3.5950     0.3300     3.6420 ca         1 8SW      -0.129000
      7 CAW          3.7150     0.1190     2.2860 ca         1 8SW      -0.084000
      8 CBV          4.5340    -0.9090     1.8000 ca         1 8SW      -0.226600
      9 CBK          4.7190    -1.1850     0.3560 c          1 8SW       0.631700
     10 OAE          5.2720    -2.2250    -0.0300 o          1 8SW      -0.658100
     11 NBG          4.2640    -0.2870    -0.5210 ns         1 8SW      -0.468900
     12 CBX          4.3400    -0.5100    -1.9400 c3         1 8SW       0.008700
     13 CBL          5.7790    -0.3610    -2.4400 c          1 8SW       0.592100
     14 OAF          6.5750     0.3800    -1.8950 o          1 8SW      -0.566100
     15 NBB          6.0620    -1.0720    -3.5410 ns         1 8SW      -0.504900
     16 CAX          7.3330    -0.9630    -4.2180 c3         1 8SW       0.192100
     17 CAN          7.4650     0.2710    -4.9930 c1         1 8SW      -0.177100
     18 CAA          7.5800     1.2790    -5.6370 c1         1 8SW      -0.214000
     19 CBA          3.4460     0.5000    -2.6750 c3         1 8SW       0.088000
     20 NBE          2.0630     0.4020    -2.2760 ns         1 8SW      -0.503900
     21 C            1.5480     1.0810    -1.2400 c          1 8SW       0.582100
     22 O            2.1930     1.8640    -0.5600 o          1 8SW      -0.587100
     23 CA           0.0690     0.8050    -0.9670 c3         1 8SW       0.012700
     24 N           -0.2520     1.1250     0.3980 ns         1 8SW      -0.469900
     25 CBJ         -0.3650     2.3560     0.9080 c          1 8SW       0.643700
     26 OAD         -0.4600     3.3600     0.1900 o          1 8SW      -0.649100
     27 CBU         -0.4180     2.4850     2.3850 ca         1 8SW      -0.233600
     28 CAV         -0.0590     1.4490     3.2590 ca         1 8SW      -0.085000
     29 CAP         -0.1190     1.6340     4.6240 ca         1 8SW      -0.123000
     30 CAS         -0.5390     2.8540     5.1500 ca         1 8SW      -0.091000
     31 CBO         -0.8840     3.8930     4.3090 ca         1 8SW       0.100100
     32 OAI         -1.2780     5.0710     4.8340 oh         1 8SW      -0.531100
     33 CBR         -0.8110     3.7200     2.9160 ca         1 8SW       0.131100
     34 OAL         -1.1320     4.7820     2.1690 oh         1 8SW      -0.576100
     35 CB          -0.8080     1.5000    -2.0330 c3         1 8SW       0.110000
     36 NBD         -2.1970     1.5550    -1.6680 ns         1 8SW      -0.486900
     37 CBH         -2.9870     0.4750    -1.6460 c          1 8SW       0.588100
     38 OAB         -2.6140    -0.6410    -1.9740 o          1 8SW      -0.622100
     39 CAY         -4.4090     0.7460    -1.1850 c3         1 8SW       0.017000
     40 NBC         -5.1410    -0.4890    -1.1720 ns         1 8SW      -0.471900
     41 CBI         -6.4320    -0.5480    -0.8540 c          1 8SW       0.629700
     42 OAC         -7.0600     0.4810    -0.5540 o          1 8SW      -0.658100
     43 CBT         -7.1070    -1.8690    -0.8650 ca         1 8SW      -0.231600
     44 CAU         -6.4600    -3.0630    -1.2120 ca         1 8SW      -0.080000
     45 CAO         -7.1440    -4.2580    -1.2010 ca         1 8SW      -0.126000
     46 CAR         -8.4910    -4.2930    -0.8420 ca         1 8SW      -0.093000
     47 CBN         -9.1510    -3.1310    -0.4980 ca         1 8SW       0.095100
     48 OAH        -10.4530    -3.1820    -0.1540 oh         1 8SW      -0.534100
     49 CBQ         -8.4610    -1.9050    -0.5080 ca         1 8SW       0.135100
     50 OAK         -9.1680    -0.8240    -0.1640 oh         1 8SW      -0.580100
     51 H1           5.8920    -2.8500     1.3590 ho         1 8SW       0.531000
     52 H2           6.2140    -2.9870     4.5140 ho         1 8SW       0.486000
     53 H3           4.1890    -0.3140     5.6100 ha         1 8SW       0.131000
     54 H4           2.9590     1.1220     4.0130 ha         1 8SW       0.124000
     55 H5           3.1460     0.7480     1.6130 ha         1 8SW       0.122000
     56 H6           3.9550     0.6190    -0.2050 hn         1 8SW       0.356500
     57 H7           3.9780    -1.5180    -2.1630 h1         1 8SW       0.073700
     58 H8           5.3590    -1.6620    -3.9560 hn         1 8SW       0.316500
     59 H9           8.1480    -1.0290    -3.4950 h1         1 8SW       0.072200
     60 H10          7.4320    -1.8210    -4.8820 h1         1 8SW       0.072200
     61 H11          7.6780     2.1750    -6.2050 ha         1 8SW       0.256000
     62 H12          3.8010     1.5160    -2.5040 h1         1 8SW       0.077700
     63 H13          3.5060     0.3130    -3.7460 h1         1 8SW       0.077700
     64 H14          1.4960    -0.2930    -2.7360 hn         1 8SW       0.321500
     65 H15         -0.1000    -0.2690    -1.0560 h1         1 8SW       0.081700
     66 H16         -0.2510     0.3430     1.0300 hn         1 8SW       0.330500
     67 H17          0.2970     0.4990     2.8850 ha         1 8SW       0.109000
     68 H18          0.1660     0.8320     5.2920 ha         1 8SW       0.124000
     69 H19         -0.5880     3.0020     6.2220 ha         1 8SW       0.136000
     70 H20         -1.4700     5.7030     4.1300 ho         1 8SW       0.487000
     71 H21         -0.9380     4.5330     1.2300 ho         1 8SW       0.529000
     72 H22         -0.4750     2.5180    -2.2100 h1         1 8SW       0.074200
     73 H23         -0.6930     0.9540    -2.9700 h1         1 8SW       0.074200
     74 H24         -2.5520     2.4330    -1.3260 hn         1 8SW       0.337500
     75 H25         -4.3840     1.2050    -0.1920 h1         1 8SW       0.076200
     76 H26         -4.8720     1.4740    -1.8580 h1         1 8SW       0.076200
     77 H27         -4.6220    -1.3170    -1.4230 hn         1 8SW       0.350500
     78 H28         -5.4160    -3.0720    -1.4940 ha         1 8SW       0.111000
     79 H29         -6.6390    -5.1750    -1.4690 ha         1 8SW       0.121000
     80 H30         -9.0310    -5.2320    -0.8290 ha         1 8SW       0.133000
     81 H31        -10.7760    -2.2990     0.0650 ho         1 8SW       0.486000
     82 H32         -8.5450    -0.0520    -0.2300 ho         1 8SW       0.534000
@<TRIPOS>BOND
     1     1     2 1   
     2     1    51 1   
     3     2     3 ar  
     4     2     8 ar  
     5     3     4 1   
     6     3     5 ar  
     7     4    52 1   
     8     5     6 ar  
     9     5    53 1   
    10     6     7 ar  
    11     6    54 1   
    12     7     8 ar  
    13     7    55 1   
    14     8     9 1   
    15     9    10 2   
    16     9    11 1   
    17    11    12 1   
    18    11    56 1   
    19    12    13 1   
    20    12    19 1   
    21    12    57 1   
    22    13    14 2   
    23    13    15 1   
    24    15    16 1   
    25    15    58 1   
    26    16    17 1   
    27    16    59 1   
    28    16    60 1   
    29    17    18 3   
    30    18    61 1   
    31    19    20 1   
    32    19    62 1   
    33    19    63 1   
    34    20    21 1   
    35    20    64 1   
    36    21    22 2   
    37    21    23 1   
    38    23    24 1   
    39    23    35 1   
    40    23    65 1   
    41    24    25 1   
    42    24    66 1   
    43    25    26 2   
    44    25    27 1   
    45    27    28 ar  
    46    27    33 ar  
    47    28    29 ar  
    48    28    67 1   
    49    29    30 ar  
    50    29    68 1   
    51    30    31 ar  
    52    30    69 1   
    53    31    32 1   
    54    31    33 ar  
    55    32    70 1   
    56    33    34 1   
    57    34    71 1   
    58    35    36 1   
    59    35    72 1   
    60    35    73 1   
    61    36    37 1   
    62    36    74 1   
    63    37    38 2   
    64    37    39 1   
    65    39    40 1   
    66    39    75 1   
    67    39    76 1   
    68    40    41 1   
    69    40    77 1   
    70    41    42 2   
    71    41    43 1   
    72    43    44 ar  
    73    43    49 ar  
    74    44    45 ar  
    75    44    78 1   
    76    45    46 ar  
    77    45    79 1   
    78    46    47 ar  
    79    46    80 1   
    80    47    48 1   
    81    47    49 ar  
    82    48    81 1   
    83    49    50 1   
    84    50    82 1   
@<TRIPOS>SUBSTRUCTURE
     1 8SW         1 TEMP              0 ****  ****    0 ROOT
