@<TRIPOS>MOLECULE
8SX
   69    72     1     0     0
SMALL
No Charge or Current Charge


@<TRIPOS>ATOM
      1 C10         -0.3880     1.4610     1.4150 c6         1 8SX      -0.072400
      2 C13         -3.6840    -0.0750     2.0800 c2         1 8SX      -0.282000
      3 C15         -2.2470     2.4210    -1.2250 c6         1 8SX      -0.002000
      4 C17         -2.2720     2.3760     2.8140 c3         1 8SX      -0.078100
      5 C20          3.7820     1.5810    -0.5660 c3         1 8SX      -0.191400
      6 C21          4.8770     0.7650     0.0960 c          1 8SX       0.676100
      7 C22          3.7730    -1.3910    -0.6390 c3         1 8SX       0.228000
      8 C24          4.3060    -1.4930    -2.0940 c3         1 8SX      -0.105100
      9 C26         -4.1550    -4.2930     0.0130 c3         1 8SX       0.152900
     10 C01          2.2300    -0.9080    -0.5710 c6         1 8SX      -0.073700
     11 C02          1.7960     0.1470     0.5400 c6         1 8SX      -0.010000
     12 C03          1.2540    -2.1900    -0.6240 c6         1 8SX      -0.071400
     13 C04         -0.2420    -1.8150    -0.7300 c6         1 8SX      -0.084400
     14 C05         -0.7360    -0.9050     0.4270 c6         1 8SX       0.007000
     15 C06          0.1920     0.3750     0.4310 c6         1 8SX      -0.056700
     16 C07         -2.1930    -0.4360     0.0880 c6         1 8SX      -0.154800
     17 C08         -2.6980     0.3720     1.2770 c2         1 8SX      -0.089400
     18 C09         -1.9540     1.7160     1.4190 c6         1 8SX      -0.101800
     19 C11          2.2520    -0.3280     1.9700 c3         1 8SX      -0.089100
     20 C12         -0.7440    -1.6860     1.7960 c3         1 8SX      -0.094100
     21 C14         -2.5050     2.6860     0.2980 c          1 8SX       0.555100
     22 O01         -3.2950     3.5830     0.5860 o          1 8SX      -0.503100
     23 C16         -2.2690     0.8950    -1.5590 c          1 8SX       0.612100
     24 O02         -2.5810     0.4750    -2.6690 o          1 8SX      -0.489100
     25 C18         -0.9230     3.1040    -1.6840 c3         1 8SX      -0.110100
     26 O03         -3.3030     3.0870    -1.9910 oh         1 8SX      -0.625000
     27 C19          2.4780     1.5510     0.2580 c3         1 8SX      -0.076400
     28 O04          4.7260    -0.5980     0.1150 os         1 8SX      -0.471100
     29 O05          5.7880     1.3010     0.7090 o          1 8SX      -0.508000
     30 C23          4.0120    -2.7760     0.0310 c3         1 8SX      -0.105100
     31 C25         -3.5100    -2.0120    -0.4380 c          1 8SX       0.611100
     32 O06         -4.5620    -1.7900    -1.0200 o          1 8SX      -0.477000
     33 O07         -3.2480    -3.1920     0.2090 os         1 8SX      -0.427100
     34 H1          -0.1090     1.1600     2.4310 hc         1 8SX       0.060700
     35 H2           0.1180     2.4240     1.2760 hc         1 8SX       0.060700
     36 H3          -4.1590    -1.0420     1.9260 ha         1 8SX       0.173000
     37 H4          -4.0640     0.4860     2.9320 ha         1 8SX       0.173000
     38 H5          -1.7150     3.3120     2.9450 hc         1 8SX       0.048033
     39 H6          -3.3350     2.6190     2.9370 hc         1 8SX       0.048033
     40 H7          -1.9970     1.7170     3.6470 hc         1 8SX       0.048033
     41 H8           4.1200     2.6200    -0.6550 hc         1 8SX       0.070700
     42 H9           3.5560     1.2030    -1.5630 hc         1 8SX       0.070700
     43 H10          4.2050    -0.5540    -2.6460 hc         1 8SX       0.049200
     44 H11          5.3660    -1.7730    -2.1030 hc         1 8SX       0.049200
     45 H12          3.7520    -2.2580    -2.6510 hc         1 8SX       0.049200
     46 H13         -5.1640    -4.0370     0.3630 h1         1 8SX       0.050033
     47 H14         -4.2130    -4.5680    -1.0480 h1         1 8SX       0.050033
     48 H15         -3.8140    -5.1710     0.5750 h1         1 8SX       0.050033
     49 H16          2.0460    -0.4110    -1.5330 hc         1 8SX       0.050700
     50 H17          1.4670    -2.8490    -1.4940 hc         1 8SX       0.046700
     51 H18          1.3630    -2.8720     0.2430 hc         1 8SX       0.046700
     52 H19         -0.4140    -1.3180    -1.6950 hc         1 8SX       0.064200
     53 H20         -0.8330    -2.7390    -0.7630 hc         1 8SX       0.064200
     54 H21          0.0700     0.7820    -0.5740 hc         1 8SX       0.035700
     55 H22          3.3280    -0.2160     2.1230 hc         1 8SX       0.042033
     56 H23          1.7890     0.2470     2.7760 hc         1 8SX       0.042033
     57 H24          2.0350    -1.3820     2.1510 hc         1 8SX       0.042033
     58 H25          0.1330    -2.3160     1.9470 hc         1 8SX       0.046367
     59 H26         -0.8090    -1.0160     2.6600 hc         1 8SX       0.046367
     60 H27         -1.6000    -2.3620     1.8690 hc         1 8SX       0.046367
     61 H28         -0.6290     2.7760    -2.6890 hc         1 8SX       0.058700
     62 H29         -1.0350     4.1950    -1.7180 hc         1 8SX       0.058700
     63 H30         -0.0900     2.9130    -1.0110 hc         1 8SX       0.058700
     64 H31         -3.7270     3.7330    -1.3760 ho         1 8SX       0.452000
     65 H32          2.6510     2.0820     1.2040 hc         1 8SX       0.052700
     66 H33          1.8010     2.1990    -0.3000 hc         1 8SX       0.052700
     67 H34          5.0850    -3.0030     0.0840 hc         1 8SX       0.049200
     68 H35          3.6210    -2.7960     1.0540 hc         1 8SX       0.049200
     69 H36          3.5480    -3.5900    -0.5360 hc         1 8SX       0.049200
@<TRIPOS>BOND
     1     1    15 1   
     2     1    18 1   
     3     1    34 1   
     4     1    35 1   
     5     2    17 2   
     6     2    36 1   
     7     2    37 1   
     8     3    21 1   
     9     3    23 1   
    10     3    25 1   
    11     3    26 1   
    12     4    18 1   
    13     4    38 1   
    14     4    39 1   
    15     4    40 1   
    16     5     6 1   
    17     5    27 1   
    18     5    41 1   
    19     5    42 1   
    20     6    28 1   
    21     6    29 2   
    22     7     8 1   
    23     7    10 1   
    24     7    28 1   
    25     7    30 1   
    26     8    43 1   
    27     8    44 1   
    28     8    45 1   
    29     9    33 1   
    30     9    46 1   
    31     9    47 1   
    32     9    48 1   
    33    10    11 1   
    34    10    12 1   
    35    10    49 1   
    36    11    15 1   
    37    11    19 1   
    38    11    27 1   
    39    12    13 1   
    40    12    50 1   
    41    12    51 1   
    42    13    14 1   
    43    13    52 1   
    44    13    53 1   
    45    14    15 1   
    46    14    16 1   
    47    14    20 1   
    48    15    54 1   
    49    16    17 1   
    50    16    23 1   
    51    16    31 1   
    52    17    18 1   
    53    18    21 1   
    54    19    55 1   
    55    19    56 1   
    56    19    57 1   
    57    20    58 1   
    58    20    59 1   
    59    20    60 1   
    60    21    22 2   
    61    23    24 2   
    62    25    61 1   
    63    25    62 1   
    64    25    63 1   
    65    26    64 1   
    66    27    65 1   
    67    27    66 1   
    68    30    67 1   
    69    30    68 1   
    70    30    69 1   
    71    31    32 2   
    72    31    33 1   
@<TRIPOS>SUBSTRUCTURE
     1 8SX         1 TEMP              0 ****  ****    0 ROOT
