@<TRIPOS>MOLECULE
8SX
   69    72     1     0     0
SMALL
abcg2


@<TRIPOS>ATOM
      1 C10         -0.3130     1.2020     1.5990 c6         1 8SX      -0.072400
      2 C13         -3.5840    -0.0180     1.9680 c2         1 8SX      -0.282000
      3 C15         -2.3070     1.6280    -1.2730 c6         1 8SX      -0.002000
      4 C17         -2.2900     2.5190     2.3760 c3         1 8SX      -0.078100
      5 C20          3.5120     1.5820    -0.6850 c3         1 8SX      -0.191400
      6 C21          4.7740     1.0120    -0.1220 c          1 8SX       0.676100
      7 C22          3.8870    -1.3090    -0.2290 c3         1 8SX       0.228000
      8 C24          4.3240    -1.6510    -1.6520 c3         1 8SX      -0.105100
      9 C26         -5.0760    -2.2960    -1.1510 c3         1 8SX       0.152900
     10 C01          2.3570    -0.9770    -0.2310 c6         1 8SX      -0.073700
     11 C02          1.8450     0.1060     0.7510 c6         1 8SX      -0.010000
     12 C03          1.5560    -2.2750    -0.1060 c6         1 8SX      -0.071400
     13 C04          0.0850    -2.0660    -0.4220 c6         1 8SX      -0.084400
     14 C05         -0.5700    -1.0880     0.5590 c6         1 8SX       0.007000
     15 C06          0.2820     0.2110     0.6000 c6         1 8SX      -0.056700
     16 C07         -2.0280    -0.6280     0.0910 c6         1 8SX      -0.154800
     17 C08         -2.5830     0.3020     1.1590 c2         1 8SX      -0.089400
     18 C09         -1.7810     1.5790     1.2870 c6         1 8SX      -0.101800
     19 C11          2.2780    -0.1760     2.1950 c3         1 8SX      -0.089100
     20 C12         -0.6810    -1.7660     1.9310 c3         1 8SX      -0.094100
     21 C14         -1.7230     2.3250    -0.0430 c          1 8SX       0.555100
     22 O01         -1.2560     3.4340    -0.1210 o          1 8SX      -0.503100
     23 C16         -1.9690     0.1260    -1.2540 c          1 8SX       0.612100
     24 O02         -1.7210    -0.4500    -2.2790 o          1 8SX      -0.489100
     25 C18         -1.8700     2.2790    -2.5690 c3         1 8SX      -0.110100
     26 O03         -3.7090     1.6550    -1.0940 oh         1 8SX      -0.625000
     27 C19          2.3760     1.5190     0.3380 c3         1 8SX      -0.076400
     28 O04          4.7660    -0.2580     0.2600 os         1 8SX      -0.471100
     29 O05          5.7660     1.6640     0.0970 o          1 8SX      -0.508000
     30 C23          4.2620    -2.4660     0.6970 c3         1 8SX      -0.105100
     31 C25         -2.9920    -1.7920    -0.1730 c          1 8SX       0.611100
     32 O06         -2.8380    -2.9440     0.1340 o          1 8SX      -0.477000
     33 O07         -4.0660    -1.3480    -0.8030 os         1 8SX      -0.427100
     34 H1          -0.2880     0.7900     2.6090 hc         1 8SX       0.060700
     35 H2           0.2700     2.1240     1.6310 hc         1 8SX       0.060700
     36 H3          -4.1140    -0.9600     1.9090 ha         1 8SX       0.173000
     37 H4          -3.9260     0.6510     2.7450 ha         1 8SX       0.173000
     38 H5          -1.6570     3.4020     2.4370 hc         1 8SX       0.048033
     39 H6          -3.3130     2.8450     2.1900 hc         1 8SX       0.048033
     40 H7          -2.2590     2.0250     3.3470 hc         1 8SX       0.048033
     41 H8           3.6990     2.6250    -0.9380 hc         1 8SX       0.070700
     42 H9           3.2320     1.0850    -1.6150 hc         1 8SX       0.070700
     43 H10          4.1760    -0.8170    -2.3400 hc         1 8SX       0.049200
     44 H11          5.3770    -1.9370    -1.6790 hc         1 8SX       0.049200
     45 H12          3.7430    -2.4900    -2.0330 hc         1 8SX       0.049200
     46 H13         -4.6790    -3.0760    -1.8000 h1         1 8SX       0.050033
     47 H14         -5.5140    -2.7520    -0.2640 h1         1 8SX       0.050033
     48 H15         -5.8370    -1.7340    -1.6830 h1         1 8SX       0.050033
     49 H16          2.1210    -0.6030    -1.2360 hc         1 8SX       0.050700
     50 H17          1.9450    -3.0150    -0.8090 hc         1 8SX       0.046700
     51 H18          1.6800    -2.7140     0.8860 hc         1 8SX       0.046700
     52 H19          0.0130    -1.7060    -1.4480 hc         1 8SX       0.064200
     53 H20         -0.4270    -3.0270    -0.3920 hc         1 8SX       0.064200
     54 H21          0.1910     0.6410    -0.4100 hc         1 8SX       0.035700
     55 H22          3.3550    -0.0690     2.3110 hc         1 8SX       0.042033
     56 H23          1.8210     0.5290     2.8890 hc         1 8SX       0.042033
     57 H24          2.0160    -1.1770     2.5350 hc         1 8SX       0.042033
     58 H25          0.2930    -2.0920     2.2850 hc         1 8SX       0.046367
     59 H26         -1.1030    -1.1250     2.7000 hc         1 8SX       0.046367
     60 H27         -1.3060    -2.6540     1.8750 hc         1 8SX       0.046367
     61 H28         -2.3450     1.7940    -3.4190 hc         1 8SX       0.058700
     62 H29         -2.1470     3.3330    -2.5780 hc         1 8SX       0.058700
     63 H30         -0.7900     2.2210    -2.7040 hc         1 8SX       0.058700
     64 H31         -4.0100     2.5670    -1.1900 ho         1 8SX       0.452000
     65 H32          2.6860     2.0720     1.2280 hc         1 8SX       0.052700
     66 H33          1.5690     2.1110    -0.0990 hc         1 8SX       0.052700
     67 H34          5.3440    -2.6040     0.6840 hc         1 8SX       0.049200
     68 H35          3.9550    -2.2920     1.7270 hc         1 8SX       0.049200
     69 H36          3.8170    -3.4010     0.3650 hc         1 8SX       0.049200
@<TRIPOS>BOND
     1     1    15 1   
     2     1    18 1   
     3     1    34 1   
     4     1    35 1   
     5     2    17 2   
     6     2    36 1   
     7     2    37 1   
     8     3    21 1   
     9     3    23 1   
    10     3    25 1   
    11     3    26 1   
    12     4    18 1   
    13     4    38 1   
    14     4    39 1   
    15     4    40 1   
    16     5     6 1   
    17     5    27 1   
    18     5    41 1   
    19     5    42 1   
    20     6    28 1   
    21     6    29 2   
    22     7     8 1   
    23     7    10 1   
    24     7    28 1   
    25     7    30 1   
    26     8    43 1   
    27     8    44 1   
    28     8    45 1   
    29     9    33 1   
    30     9    46 1   
    31     9    47 1   
    32     9    48 1   
    33    10    11 1   
    34    10    12 1   
    35    10    49 1   
    36    11    15 1   
    37    11    19 1   
    38    11    27 1   
    39    12    13 1   
    40    12    50 1   
    41    12    51 1   
    42    13    14 1   
    43    13    52 1   
    44    13    53 1   
    45    14    15 1   
    46    14    16 1   
    47    14    20 1   
    48    15    54 1   
    49    16    17 1   
    50    16    23 1   
    51    16    31 1   
    52    17    18 1   
    53    18    21 1   
    54    19    55 1   
    55    19    56 1   
    56    19    57 1   
    57    20    58 1   
    58    20    59 1   
    59    20    60 1   
    60    21    22 2   
    61    23    24 2   
    62    25    61 1   
    63    25    62 1   
    64    25    63 1   
    65    26    64 1   
    66    27    65 1   
    67    27    66 1   
    68    30    67 1   
    69    30    68 1   
    70    30    69 1   
    71    31    32 2   
    72    31    33 1   
@<TRIPOS>SUBSTRUCTURE
     1 8SX         1 TEMP              0 ****  ****    0 ROOT
