@<TRIPOS>MOLECULE
8SY
   25    26     1     0     0
SMALL
abcg2


@<TRIPOS>ATOM
      1 N1          -1.4480     0.6900    -0.0790 n          1 8SY      -0.216400
      2 C4          -0.5560    -1.9310    -0.3980 c6         1 8SY      -0.027100
      3 C5           0.4410    -0.8370    -0.1730 ca         1 8SY      -0.078300
      4 C6           1.8040    -1.0710    -0.1220 ca         1 8SY      -0.144000
      5 C7           2.7190    -0.0330     0.0840 ca         1 8SY       0.265000
      6 C8           2.2110     1.2560     0.2520 ca         1 8SY      -0.151000
      7 C10         -0.0550     0.4580    -0.0030 ca         1 8SY      -0.063000
      8 C1          -1.9120     2.0370    -0.3490 c3         1 8SY       0.082300
      9 C2          -2.3550    -0.2880     0.1950 c          1 8SY       0.568000
     10 C3          -1.7810    -1.6580     0.4590 c6         1 8SY      -0.158400
     11 C9           0.8450     1.4950     0.2140 ca         1 8SY      -0.105000
     12 N2           4.0760    -0.2880     0.1800 nv         1 8SY      -1.062000
     13 O1          -3.5570    -0.0690     0.2300 o          1 8SY      -0.552000
     14 H1          -0.8450    -1.9640    -1.4530 hc         1 8SY       0.058200
     15 H2          -0.1310    -2.9050    -0.1570 hc         1 8SY       0.058200
     16 H3           2.1680    -2.0850    -0.2520 ha         1 8SY       0.114000
     17 H4           2.8870     2.0850     0.4210 ha         1 8SY       0.115000
     18 H5          -2.9410     2.0080    -0.6910 h1         1 8SY       0.047367
     19 H6          -1.8620     2.6730     0.5370 h1         1 8SY       0.047367
     20 H7          -1.3000     2.4830    -1.1310 h1         1 8SY       0.047367
     21 H8          -2.5660    -2.3930     0.2880 hc         1 8SY       0.076200
     22 H9          -1.5130    -1.7160     1.5200 hc         1 8SY       0.076200
     23 H10          0.4990     2.5100     0.3610 ha         1 8SY       0.118000
     24 H11          4.3870    -1.1210    -0.2940 hn         1 8SY       0.442500
     25 H12          4.6710     0.4940    -0.0420 hn         1 8SY       0.442500
@<TRIPOS>BOND
     1     1     7 1   
     2     1     8 1   
     3     1     9 1   
     4     2     3 1   
     5     2    10 1   
     6     2    14 1   
     7     2    15 1   
     8     3     4 ar  
     9     3     7 ar  
    10     4     5 ar  
    11     4    16 1   
    12     5     6 ar  
    13     5    12 1   
    14     6    11 ar  
    15     6    17 1   
    16     7    11 ar  
    17     8    18 1   
    18     8    19 1   
    19     8    20 1   
    20     9    10 1   
    21     9    13 2   
    22    10    21 1   
    23    10    22 1   
    24    11    23 1   
    25    12    24 1   
    26    12    25 1   
@<TRIPOS>SUBSTRUCTURE
     1 8SY         1 TEMP              0 ****  ****    0 ROOT
