@<TRIPOS>MOLECULE
8SY
   25    26     1     0     0
SMALL
No Charge or Current Charge


@<TRIPOS>ATOM
      1 N1          -1.4650     0.7460    -0.0280 n          1 8SY      -0.216400
      2 C4          -0.5520    -1.9680    -0.3730 c6         1 8SY      -0.027100
      3 C5           0.4390    -0.8180    -0.2130 ca         1 8SY      -0.078300
      4 C6           1.8220    -1.0800    -0.1800 ca         1 8SY      -0.144000
      5 C7           2.7370    -0.0370     0.0200 ca         1 8SY       0.265000
      6 C8           2.2660     1.2680     0.2130 ca         1 8SY      -0.151000
      7 C10         -0.0400     0.5090    -0.1070 ca         1 8SY      -0.063000
      8 C1          -1.9870     2.1050    -0.3150 c3         1 8SY       0.082300
      9 C2          -2.3940    -0.3030     0.1910 c          1 8SY       0.568000
     10 C3          -1.8200    -1.6980     0.4610 c6         1 8SY      -0.158400
     11 C9           0.8860     1.5380     0.1760 ca         1 8SY      -0.105000
     12 N2           4.0820    -0.2950     0.0560 nv         1 8SY      -1.062000
     13 O1          -3.6080    -0.1330     0.1500 o          1 8SY      -0.552000
     14 H1          -0.8180    -2.0760    -1.4330 hc         1 8SY       0.058200
     15 H2          -0.0990    -2.9190    -0.0620 hc         1 8SY       0.058200
     16 H3           2.1830    -2.0980    -0.2940 ha         1 8SY       0.114000
     17 H4           2.9660     2.0780     0.4050 ha         1 8SY       0.115000
     18 H5          -2.9730     2.0560    -0.7940 h1         1 8SY       0.047367
     19 H6          -2.0700     2.6710     0.6210 h1         1 8SY       0.047367
     20 H7          -1.3100     2.6330    -0.9980 h1         1 8SY       0.047367
     21 H8          -2.5940    -2.4680     0.3430 hc         1 8SY       0.076200
     22 H9          -1.4970    -1.6920     1.5100 hc         1 8SY       0.076200
     23 H10          0.5510     2.5550     0.3630 ha         1 8SY       0.118000
     24 H11          4.4320    -1.2180    -0.1980 hn         1 8SY       0.442500
     25 H12          4.7500     0.4730     0.0850 hn         1 8SY       0.442500
@<TRIPOS>BOND
     1     1     7 1   
     2     1     8 1   
     3     1     9 1   
     4     2     3 1   
     5     2    10 1   
     6     2    14 1   
     7     2    15 1   
     8     3     4 ar  
     9     3     7 ar  
    10     4     5 ar  
    11     4    16 1   
    12     5     6 ar  
    13     5    12 1   
    14     6    11 ar  
    15     6    17 1   
    16     7    11 ar  
    17     8    18 1   
    18     8    19 1   
    19     8    20 1   
    20     9    10 1   
    21     9    13 2   
    22    10    21 1   
    23    10    22 1   
    24    11    23 1   
    25    12    24 1   
    26    12    25 1   
@<TRIPOS>SUBSTRUCTURE
     1 8SY         1 TEMP              0 ****  ****    0 ROOT
