@<TRIPOS>MOLECULE
8SZ
   26    25     1     0     0
SMALL
No Charge or Current Charge


@<TRIPOS>ATOM
      1 C10         12.4210     7.2790    91.7810 c3         1 8SZ       0.149800
      2 O01         14.4300     5.2250    97.2320 o          1 8SZ      -0.609100
      3 O02         14.8690     3.5390    95.1100 oh         1 8SZ      -0.450100
      4 N03         15.8610     8.0220    96.1080 n8         1 8SZ      -0.994200
      5 N04         11.6860     7.7670    90.6000 n8         1 8SZ      -1.002200
      6 N05         14.9140     4.9800    95.0290 ns         1 8SZ      -0.365400
      7 C06         13.9100     7.7470    94.5830 c3         1 8SZ      -0.076400
      8 C07         12.4580     7.2400    94.3770 c3         1 8SZ      -0.078400
      9 C08         14.5460     7.3150    95.9350 c3         1 8SZ       0.101500
     10 C09         11.7740     7.7710    93.0940 c3         1 8SZ      -0.077400
     11 C11         14.6200     5.7550    96.1440 c          1 8SZ       0.526100
     12 H1          12.4290     6.1800    91.7610 h1         1 8SZ       0.025700
     13 H2          13.4580     7.6370    91.7150 h1         1 8SZ       0.025700
     14 H3          14.5010     3.3920    96.0170 ho         1 8SZ       0.475000
     15 H4          16.2530     7.7910    97.0310 hn         1 8SZ       0.408000
     16 H5          16.5530     7.6330    95.4540 hn         1 8SZ       0.408000
     17 H7          12.1090     7.3670    89.7530 hn         1 8SZ       0.394000
     18 H8          10.7400     7.3650    90.6070 hn         1 8SZ       0.394000
     19 H10         14.9660     5.3890    94.0970 hn         1 8SZ       0.347500
     20 H11         14.5440     7.4140    93.7530 hc         1 8SZ       0.052700
     21 H12         13.8990     8.8440    94.5390 hc         1 8SZ       0.052700
     22 H13         11.8530     7.5470    95.2400 hc         1 8SZ       0.046700
     23 H14         12.4400     6.1440    94.3600 hc         1 8SZ       0.046700
     24 H15         13.8750     7.6750    96.7300 h1         1 8SZ       0.098700
     25 H16         11.7760     8.8680    93.1120 hc         1 8SZ       0.050700
     26 H17         10.7220     7.4590    93.1100 hc         1 8SZ       0.050700
@<TRIPOS>BOND
     1     1     5 1   
     2     1    10 1   
     3     1    12 1   
     4     1    13 1   
     5     2    11 2   
     6     3     6 1   
     7     3    14 1   
     8     4     9 1   
     9     4    15 1   
    10     4    16 1   
    11     5    17 1   
    12     5    18 1   
    13     6    11 1   
    14     6    19 1   
    15     7     8 1   
    16     7     9 1   
    17     7    20 1   
    18     7    21 1   
    19     8    10 1   
    20     8    22 1   
    21     8    23 1   
    22     9    11 1   
    23     9    24 1   
    24    10    25 1   
    25    10    26 1   
@<TRIPOS>SUBSTRUCTURE
     1 8SZ         1 TEMP              0 ****  ****    0 ROOT
