@<TRIPOS>MOLECULE
8SZ
   26    25     1     0     0
SMALL
abcg2


@<TRIPOS>ATOM
      1 C10         12.4090     7.3130    91.8150 c3         1 8SZ       0.149800
      2 O01         13.7680     5.2470    96.9410 o          1 8SZ      -0.609100
      3 O02         15.0620     3.6520    95.3230 oh         1 8SZ      -0.450100
      4 N03         15.8730     7.8750    95.9860 n8         1 8SZ      -0.994200
      5 N04         11.6240     7.7780    90.6620 n8         1 8SZ      -1.002200
      6 N05         15.2100     5.0380    95.2520 ns         1 8SZ      -0.365400
      7 C06         13.8830     7.7330    94.5530 c3         1 8SZ      -0.076400
      8 C07         12.4550     7.2200    94.3740 c3         1 8SZ      -0.078400
      9 C08         14.5270     7.3090    95.8770 c3         1 8SZ       0.101500
     10 C09         11.7620     7.7590    93.1210 c3         1 8SZ      -0.077400
     11 C11         14.4580     5.7910    96.0690 c          1 8SZ       0.526100
     12 H1          12.5300     6.2200    91.8350 h1         1 8SZ       0.025700
     13 H2          13.4110     7.7390    91.7260 h1         1 8SZ       0.025700
     14 H3          14.3760     3.5590    96.0160 ho         1 8SZ       0.475000
     15 H4          16.3210     7.5660    96.8430 hn         1 8SZ       0.408000
     16 H5          16.4590     7.5620    95.2190 hn         1 8SZ       0.408000
     17 H7          12.0730     7.4870    89.8000 hn         1 8SZ       0.394000
     18 H8          10.7140     7.3270    90.6700 hn         1 8SZ       0.394000
     19 H10         15.5780     5.3420    94.3630 hn         1 8SZ       0.347500
     20 H11         14.5180     7.3960    93.7280 hc         1 8SZ       0.052700
     21 H12         13.8890     8.8260    94.5270 hc         1 8SZ       0.052700
     22 H13         11.8670     7.5000    95.2530 hc         1 8SZ       0.046700
     23 H14         12.4540     6.1260    94.3380 hc         1 8SZ       0.046700
     24 H15         13.9290     7.7060    96.7010 h1         1 8SZ       0.098700
     25 H16         11.7350     8.8530    93.1530 hc         1 8SZ       0.050700
     26 H17         10.7200     7.4200    93.1230 hc         1 8SZ       0.050700
@<TRIPOS>BOND
     1     1     5 1   
     2     1    10 1   
     3     1    12 1   
     4     1    13 1   
     5     2    11 2   
     6     3     6 1   
     7     3    14 1   
     8     4     9 1   
     9     4    15 1   
    10     4    16 1   
    11     5    17 1   
    12     5    18 1   
    13     6    11 1   
    14     6    19 1   
    15     7     8 1   
    16     7     9 1   
    17     7    20 1   
    18     7    21 1   
    19     8    10 1   
    20     8    22 1   
    21     8    23 1   
    22     9    11 1   
    23     9    24 1   
    24    10    25 1   
    25    10    26 1   
@<TRIPOS>SUBSTRUCTURE
     1 8SZ         1 TEMP              0 ****  ****    0 ROOT
