@<TRIPOS>MOLECULE
8T0
   67    70     1     0     0
SMALL
abcg2


@<TRIPOS>ATOM
      1 C10          0.2170     1.2860    -1.4750 c6         1 8T0      -0.073400
      2 C13          3.4210     0.0420    -2.1040 c2         1 8T0      -0.282000
      3 C15          2.4200     1.5830     1.2800 c6         1 8T0      -0.001000
      4 C17          2.1610     2.6230    -2.3020 c3         1 8T0      -0.079100
      5 C20         -3.5830     1.8180     0.5000 ce         1 8T0      -0.308200
      6 C21         -4.8220     1.0440     0.4090 c          1 8T0       0.678300
      7 C22         -3.9120    -1.2780     0.4210 c3         1 8T0       0.239000
      8 C24         -4.3220    -1.6130     1.8530 c3         1 8T0      -0.105100
      9 C26          5.1090    -2.3560     0.7940 c3         1 8T0       0.152900
     10 C01         -2.3860    -0.9600     0.4000 c6         1 8T0      -0.076700
     11 C02         -1.9040     0.1670    -0.5530 c6         1 8T0       0.013200
     12 C03         -1.5850    -2.2490     0.2120 c6         1 8T0      -0.069400
     13 C04         -0.1040    -2.0360     0.4680 c6         1 8T0      -0.083400
     14 C05          0.5020    -1.0380    -0.5240 c6         1 8T0       0.006000
     15 C06         -0.3340     0.2710    -0.4750 c6         1 8T0      -0.056700
     16 C07          1.9940    -0.6130    -0.1410 c6         1 8T0      -0.153800
     17 C08          2.4900     0.3470    -1.2100 c2         1 8T0      -0.089400
     18 C09          1.7020     1.6390    -1.2300 c6         1 8T0      -0.101800
     19 C11         -2.4160     0.0120    -1.9940 c3         1 8T0      -0.083100
     20 C12          0.5130    -1.6760    -1.9210 c3         1 8T0      -0.095100
     21 C14          1.7310     2.3250     0.1330 c          1 8T0       0.554100
     22 O01          1.2460     3.4160     0.2960 o          1 8T0      -0.502100
     23 C16          2.0460     0.0910     1.2330 c          1 8T0       0.611100
     24 O02          1.8460    -0.5170     2.2510 o          1 8T0      -0.487100
     25 C18          2.1200     2.1950     2.6310 c3         1 8T0      -0.109100
     26 O03          3.8000     1.5970     0.9700 oh         1 8T0      -0.624000
     27 C19         -2.3840     1.4820     0.0270 c2         1 8T0      -0.156200
     28 O04         -4.7840    -0.2100    -0.0350 os         1 8T0      -0.489100
     29 O05         -5.9000     1.5560     0.6100 o          1 8T0      -0.499000
     30 C23         -4.3160    -2.4230    -0.5050 c3         1 8T0      -0.105100
     31 C25          2.9570    -1.7980     0.0120 c          1 8T0       0.611100
     32 O06          2.7680    -2.9340    -0.3310 o          1 8T0      -0.477000
     33 O07          4.0770    -1.3910     0.5830 os         1 8T0      -0.427100
     34 H1           0.1310     0.9010    -2.4920 hc         1 8T0       0.061200
     35 H2          -0.3580     2.2150    -1.4580 hc         1 8T0       0.061200
     36 H3           3.9330    -0.9110    -2.1210 ha         1 8T0       0.173500
     37 H4           3.7160     0.7350    -2.8790 ha         1 8T0       0.173500
     38 H5           1.5490     3.5230    -2.2760 hc         1 8T0       0.048367
     39 H6           3.2030     2.9160    -2.1670 hc         1 8T0       0.048367
     40 H7           2.0550     2.1830    -3.2940 hc         1 8T0       0.048367
     41 H8          -3.7100     2.8090     0.9180 ha         1 8T0       0.201000
     42 H9          -3.7250    -2.4410     2.2350 hc         1 8T0       0.049867
     43 H10         -4.1700    -0.7630     2.5220 hc         1 8T0       0.049867
     44 H11         -5.3710    -1.9080     1.9010 hc         1 8T0       0.049867
     45 H12          5.9080    -1.8270     1.3040 h1         1 8T0       0.050367
     46 H13          4.7620    -3.1790     1.4170 h1         1 8T0       0.050367
     47 H14          5.4790    -2.7500    -0.1510 h1         1 8T0       0.050367
     48 H15         -2.1330    -0.6040     1.4060 hc         1 8T0       0.054700
     49 H16         -1.9410    -3.0010     0.9200 hc         1 8T0       0.048200
     50 H17         -1.7530    -2.6700    -0.7800 hc         1 8T0       0.048200
     51 H18          0.0110    -1.6890     1.4950 hc         1 8T0       0.064700
     52 H19          0.4100    -2.9940     0.4020 hc         1 8T0       0.064700
     53 H20         -0.1850     0.6670     0.5430 hc         1 8T0       0.038700
     54 H21         -3.4950     0.1200    -2.0530 hc         1 8T0       0.045367
     55 H22         -1.9870     0.7670    -2.6510 hc         1 8T0       0.045367
     56 H23         -2.1630    -0.9620    -2.4100 hc         1 8T0       0.045367
     57 H24         -0.4880    -1.9600    -2.2290 hc         1 8T0       0.047033
     58 H25          0.9140    -1.0220    -2.6920 hc         1 8T0       0.047033
     59 H26          1.1130    -2.5820    -1.9240 hc         1 8T0       0.047033
     60 H27          2.6580     1.6690     3.4170 hc         1 8T0       0.059033
     61 H28          2.4250     3.2410     2.6510 hc         1 8T0       0.059033
     62 H29          1.0560     2.1580     2.8660 hc         1 8T0       0.059033
     63 H30          4.1230     2.5010     1.0700 ho         1 8T0       0.452000
     64 H31         -1.6390     2.2650     0.1210 ha         1 8T0       0.179000
     65 H32         -3.8810    -3.3660    -0.1800 hc         1 8T0       0.049867
     66 H33         -5.3990    -2.5430    -0.4820 hc         1 8T0       0.049867
     67 H34         -4.0150    -2.2530    -1.5390 hc         1 8T0       0.049867
@<TRIPOS>BOND
     1     1    15 1   
     2     1    18 1   
     3     1    34 1   
     4     1    35 1   
     5     2    17 2   
     6     2    36 1   
     7     2    37 1   
     8     3    21 1   
     9     3    23 1   
    10     3    25 1   
    11     3    26 1   
    12     4    18 1   
    13     4    38 1   
    14     4    39 1   
    15     4    40 1   
    16     5     6 1   
    17     5    27 2   
    18     5    41 1   
    19     6    28 1   
    20     6    29 2   
    21     7     8 1   
    22     7    10 1   
    23     7    28 1   
    24     7    30 1   
    25     8    42 1   
    26     8    43 1   
    27     8    44 1   
    28     9    33 1   
    29     9    45 1   
    30     9    46 1   
    31     9    47 1   
    32    10    11 1   
    33    10    12 1   
    34    10    48 1   
    35    11    15 1   
    36    11    19 1   
    37    11    27 1   
    38    12    13 1   
    39    12    49 1   
    40    12    50 1   
    41    13    14 1   
    42    13    51 1   
    43    13    52 1   
    44    14    15 1   
    45    14    16 1   
    46    14    20 1   
    47    15    53 1   
    48    16    17 1   
    49    16    23 1   
    50    16    31 1   
    51    17    18 1   
    52    18    21 1   
    53    19    54 1   
    54    19    55 1   
    55    19    56 1   
    56    20    57 1   
    57    20    58 1   
    58    20    59 1   
    59    21    22 2   
    60    23    24 2   
    61    25    60 1   
    62    25    61 1   
    63    25    62 1   
    64    26    63 1   
    65    27    64 1   
    66    30    65 1   
    67    30    66 1   
    68    30    67 1   
    69    31    32 2   
    70    31    33 1   
@<TRIPOS>SUBSTRUCTURE
     1 8T0         1 TEMP              0 ****  ****    0 ROOT
