@<TRIPOS>MOLECULE
8T0
   67    70     1     0     0
SMALL
No Charge or Current Charge


@<TRIPOS>ATOM
      1 C10          0.3240     1.4860    -1.4030 c6         1 8T0      -0.073400
      2 C13          3.6080    -0.0470    -2.1340 c2         1 8T0      -0.282000
      3 C15          2.2220     2.4310     1.2050 c6         1 8T0      -0.001000
      4 C17          2.1800     2.4040    -2.8340 c3         1 8T0      -0.079100
      5 C20         -3.6460     1.7860     0.7150 ce         1 8T0      -0.308200
      6 C21         -4.7350     0.8320     1.0300 c          1 8T0       0.678300
      7 C22         -3.7540    -1.3680     0.7610 c3         1 8T0       0.239000
      8 C24         -4.1540    -1.7810     2.2060 c3         1 8T0      -0.105100
      9 C26          4.0850    -4.2910    -0.1640 c3         1 8T0       0.152900
     10 C01         -2.2340    -0.8910     0.6720 c6         1 8T0      -0.076700
     11 C02         -1.8550     0.2290    -0.3970 c6         1 8T0       0.013200
     12 C03         -1.2880    -2.1650     0.6330 c6         1 8T0      -0.069400
     13 C04          0.2110    -1.8100     0.7120 c6         1 8T0      -0.083400
     14 C05          0.6720    -0.8710    -0.4320 c6         1 8T0       0.006000
     15 C06         -0.2420     0.4220    -0.3810 c6         1 8T0      -0.056700
     16 C07          2.1450    -0.4240    -0.1240 c6         1 8T0      -0.153800
     17 C08          2.6340     0.3940    -1.3140 c2         1 8T0      -0.089400
     18 C09          1.8880     1.7400    -1.4360 c6         1 8T0      -0.101800
     19 C11         -2.4150    -0.0570    -1.8310 c3         1 8T0      -0.083100
     20 C12          0.6280    -1.6280    -1.8150 c3         1 8T0      -0.095100
     21 C14          2.4510     2.7110    -0.3210 c          1 8T0       0.554100
     22 O01          3.2290     3.6160    -0.6170 o          1 8T0      -0.502100
     23 C16          2.2730     0.9000     1.5260 c          1 8T0       0.611100
     24 O02          2.6300     0.4760     2.6200 o          1 8T0      -0.487100
     25 C18          0.8970     3.0990     1.6960 c3         1 8T0      -0.109100
     26 O03          3.2840     3.1050     1.9560 oh         1 8T0      -0.624000
     27 C19         -2.4700     1.5680     0.0730 c2         1 8T0      -0.156200
     28 O04         -4.6600    -0.3370     0.3470 os         1 8T0      -0.489100
     29 O05         -5.6790     1.1140     1.7520 o          1 8T0      -0.499000
     30 C23         -4.1260    -2.5390    -0.1920 c3         1 8T0      -0.105100
     31 C25          3.4570    -2.0190     0.3530 c          1 8T0       0.611100
     32 O06          4.5190    -1.8160     0.9250 o          1 8T0      -0.477000
     33 O07          3.1820    -3.1810    -0.3210 os         1 8T0      -0.427100
     34 H1           0.0300     1.1550    -2.4060 hc         1 8T0       0.061200
     35 H2          -0.1670     2.4600    -1.2950 hc         1 8T0       0.061200
     36 H3           4.0850    -1.0150    -1.9950 ha         1 8T0       0.173500
     37 H4           3.9760     0.5210    -2.9860 ha         1 8T0       0.173500
     38 H5           1.6190     3.3400    -2.9530 hc         1 8T0       0.048367
     39 H6           3.2400     2.6490    -2.9740 hc         1 8T0       0.048367
     40 H7           1.8910     1.7470    -3.6630 hc         1 8T0       0.048367
     41 H8          -3.8730     2.7940     1.0570 ha         1 8T0       0.201000
     42 H9          -3.6200    -2.6860     2.5160 hc         1 8T0       0.049867
     43 H10         -3.9170    -0.9920     2.9300 hc         1 8T0       0.049867
     44 H11         -5.2290    -1.9890     2.2690 hc         1 8T0       0.049867
     45 H12          3.7330    -5.1530    -0.7440 h1         1 8T0       0.050367
     46 H13          5.0910    -4.0320    -0.5180 h1         1 8T0       0.050367
     47 H14          4.1530    -4.5940     0.8890 h1         1 8T0       0.050367
     48 H15         -2.0330    -0.4270     1.6480 hc         1 8T0       0.054700
     49 H16         -1.4890    -2.8950     1.4480 hc         1 8T0       0.048200
     50 H17         -1.4690    -2.7350    -0.2850 hc         1 8T0       0.048200
     51 H18          0.4180    -1.3460     1.6860 hc         1 8T0       0.064700
     52 H19          0.7910    -2.7420     0.6960 hc         1 8T0       0.064700
     53 H20         -0.0780     0.8220     0.6200 hc         1 8T0       0.038700
     54 H21         -3.5080    -0.0440    -1.8510 hc         1 8T0       0.045367
     55 H22         -2.1090     0.7080    -2.5520 hc         1 8T0       0.045367
     56 H23         -2.1070    -1.0270    -2.2240 hc         1 8T0       0.045367
     57 H24         -0.3120    -2.1480    -2.0020 hc         1 8T0       0.047033
     58 H25          0.7910    -0.9630    -2.6690 hc         1 8T0       0.047033
     59 H26          1.4020    -2.3980    -1.8740 hc         1 8T0       0.047033
     60 H27          0.6330     2.7650     2.7070 hc         1 8T0       0.059033
     61 H28          1.0010     4.1910     1.7350 hc         1 8T0       0.059033
     62 H29          0.0440     2.9080     1.0470 hc         1 8T0       0.059033
     63 H30          3.6920     3.7560     1.3360 ho         1 8T0       0.452000
     64 H31         -1.8540     2.4500    -0.0740 ha         1 8T0       0.179000
     65 H32         -3.6700    -3.4810     0.1340 hc         1 8T0       0.049867
     66 H33         -5.2110    -2.6970    -0.2050 hc         1 8T0       0.049867
     67 H34         -3.8080    -2.3470    -1.2210 hc         1 8T0       0.049867
@<TRIPOS>BOND
     1     1    15 1   
     2     1    18 1   
     3     1    34 1   
     4     1    35 1   
     5     2    17 2   
     6     2    36 1   
     7     2    37 1   
     8     3    21 1   
     9     3    23 1   
    10     3    25 1   
    11     3    26 1   
    12     4    18 1   
    13     4    38 1   
    14     4    39 1   
    15     4    40 1   
    16     5     6 1   
    17     5    27 2   
    18     5    41 1   
    19     6    28 1   
    20     6    29 2   
    21     7     8 1   
    22     7    10 1   
    23     7    28 1   
    24     7    30 1   
    25     8    42 1   
    26     8    43 1   
    27     8    44 1   
    28     9    33 1   
    29     9    45 1   
    30     9    46 1   
    31     9    47 1   
    32    10    11 1   
    33    10    12 1   
    34    10    48 1   
    35    11    15 1   
    36    11    19 1   
    37    11    27 1   
    38    12    13 1   
    39    12    49 1   
    40    12    50 1   
    41    13    14 1   
    42    13    51 1   
    43    13    52 1   
    44    14    15 1   
    45    14    16 1   
    46    14    20 1   
    47    15    53 1   
    48    16    17 1   
    49    16    23 1   
    50    16    31 1   
    51    17    18 1   
    52    18    21 1   
    53    19    54 1   
    54    19    55 1   
    55    19    56 1   
    56    20    57 1   
    57    20    58 1   
    58    20    59 1   
    59    21    22 2   
    60    23    24 2   
    61    25    60 1   
    62    25    61 1   
    63    25    62 1   
    64    26    63 1   
    65    27    64 1   
    66    30    65 1   
    67    30    66 1   
    68    30    67 1   
    69    31    32 2   
    70    31    33 1   
@<TRIPOS>SUBSTRUCTURE
     1 8T0         1 TEMP              0 ****  ****    0 ROOT
