@<TRIPOS>MOLECULE
8T1
   23    24     1     0     0
SMALL
No Charge or Current Charge


@<TRIPOS>ATOM
      1 N1           1.4840    -0.6960    -0.0260 n          1 8T1      -0.275000
      2 C4           0.4920     2.0020    -0.0100 cc         1 8T1      -0.091200
      3 C5          -0.4240     0.8680    -0.0070 ca         1 8T1      -0.091800
      4 C6          -1.8110     1.1150     0.0100 ca         1 8T1      -0.128000
      5 C7          -2.7280     0.0540     0.0210 ca         1 8T1       0.254000
      6 C8          -2.2560    -1.2650     0.0200 ca         1 8T1      -0.121000
      7 C10          0.0590    -0.4600    -0.0170 ca         1 8T1       0.061600
      8 C1           1.9910    -2.0930    -0.0570 c3         1 8T1       0.069300
      9 C2           2.4210     0.3660    -0.0200 c          1 8T1       0.559200
     10 C3           1.8420     1.7230    -0.0130 cd         1 8T1      -0.284200
     11 C9          -0.8740    -1.5250     0.0030 ca         1 8T1      -0.124000
     12 N2          -4.0770     0.3060     0.0370 nv         1 8T1      -1.064000
     13 O1           3.6330     0.1940    -0.0230 o          1 8T1      -0.560000
     14 H1           0.1390     3.0310    -0.0060 ha         1 8T1       0.187000
     15 H2          -2.1770     2.1380     0.0160 ha         1 8T1       0.116000
     16 H3          -2.9580    -2.0950     0.0330 ha         1 8T1       0.115000
     17 H4           3.0860    -2.1350    -0.1010 h1         1 8T1       0.053700
     18 H5           1.6630    -2.6230     0.8460 h1         1 8T1       0.053700
     19 H6           1.5950    -2.6080    -0.9420 h1         1 8T1       0.053700
     20 H7           2.5800     2.5170    -0.0120 ha         1 8T1       0.208000
     21 H8          -0.5500    -2.5610     0.0050 ha         1 8T1       0.121000
     22 H9          -4.7430    -0.4580    -0.0680 hn         1 8T1       0.444000
     23 H10         -4.4240     1.2570    -0.0750 hn         1 8T1       0.444000
@<TRIPOS>BOND
     1     1     7 1   
     2     1     8 1   
     3     1     9 1   
     4     2     3 1   
     5     2    10 2   
     6     2    14 1   
     7     3     4 ar  
     8     3     7 ar  
     9     4     5 ar  
    10     4    15 1   
    11     5     6 ar  
    12     5    12 1   
    13     6    11 ar  
    14     6    16 1   
    15     7    11 ar  
    16     8    17 1   
    17     8    18 1   
    18     8    19 1   
    19     9    10 1   
    20     9    13 2   
    21    10    20 1   
    22    11    21 1   
    23    12    22 1   
    24    12    23 1   
@<TRIPOS>SUBSTRUCTURE
     1 8T1         1 TEMP              0 ****  ****    0 ROOT
