@<TRIPOS>MOLECULE
8T1
   23    24     1     0     0
SMALL
abcg2


@<TRIPOS>ATOM
      1 N1           1.4470    -0.6690    -0.0340 n          1 8T1      -0.275000
      2 C4           0.5200     1.9440     0.0060 cc         1 8T1      -0.091200
      3 C5          -0.4230     0.8680     0.0210 ca         1 8T1      -0.091800
      4 C6          -1.8010     1.1050     0.0510 ca         1 8T1      -0.128000
      5 C7          -2.7130     0.0610     0.0640 ca         1 8T1       0.254000
      6 C8          -2.2010    -1.2470     0.0410 ca         1 8T1      -0.121000
      7 C10          0.0770    -0.4430    -0.0020 ca         1 8T1       0.061600
      8 C1           1.9190    -2.0430    -0.0470 c3         1 8T1       0.069300
      9 C2           2.3760     0.3480    -0.0570 c          1 8T1       0.559200
     10 C3           1.8410     1.6980    -0.0310 cd         1 8T1      -0.284200
     11 C9          -0.8450    -1.4970     0.0070 ca         1 8T1      -0.124000
     12 N2          -4.0750     0.2830     0.1540 nv         1 8T1      -1.064000
     13 O1           3.5830     0.1240    -0.0970 o          1 8T1      -0.560000
     14 H1           0.1540     2.9630     0.0250 ha         1 8T1       0.187000
     15 H2          -2.1500     2.1320     0.0640 ha         1 8T1       0.116000
     16 H3          -2.8850    -2.0870     0.0490 ha         1 8T1       0.115000
     17 H4           3.0020    -2.0500    -0.0510 h1         1 8T1       0.053700
     18 H5           1.5690    -2.5750     0.8360 h1         1 8T1       0.053700
     19 H6           1.5630    -2.5630    -0.9360 h1         1 8T1       0.053700
     20 H7           2.5640     2.5010    -0.0430 ha         1 8T1       0.208000
     21 H8          -0.5200    -2.5270    -0.0150 ha         1 8T1       0.121000
     22 H9          -4.6540    -0.4560    -0.2130 hn         1 8T1       0.444000
     23 H10         -4.3850     1.1830    -0.1770 hn         1 8T1       0.444000
@<TRIPOS>BOND
     1     1     7 1   
     2     1     8 1   
     3     1     9 1   
     4     2     3 1   
     5     2    10 2   
     6     2    14 1   
     7     3     4 ar  
     8     3     7 ar  
     9     4     5 ar  
    10     4    15 1   
    11     5     6 ar  
    12     5    12 1   
    13     6    11 ar  
    14     6    16 1   
    15     7    11 ar  
    16     8    17 1   
    17     8    18 1   
    18     8    19 1   
    19     9    10 1   
    20     9    13 2   
    21    10    20 1   
    22    11    21 1   
    23    12    22 1   
    24    12    23 1   
@<TRIPOS>SUBSTRUCTURE
     1 8T1         1 TEMP              0 ****  ****    0 ROOT
