@<TRIPOS>MOLECULE
8T2
   81    83     1     0     0
SMALL
No Charge or Current Charge


@<TRIPOS>ATOM
      1 OAI         -9.2430     3.8150    -0.6410 oh         1 8T2      -0.583100
      2 CBN         -8.2790     4.4420     0.0990 ca         1 8T2       0.136100
      3 CBK         -8.5940     5.6610     0.7390 ca         1 8T2       0.096100
      4 OAF         -9.8480     6.1890     0.6100 oh         1 8T2      -0.533100
      5 CAO         -7.6270     6.3270     1.5040 ca         1 8T2      -0.094000
      6 CAL         -6.3420     5.7770     1.6310 ca         1 8T2      -0.126000
      7 CAR         -6.0220     4.5640     0.9960 ca         1 8T2      -0.083000
      8 CBQ         -6.9870     3.8740     0.2170 ca         1 8T2      -0.232600
      9 CBG         -6.6600     2.5660    -0.4740 c          1 8T2       0.625700
     10 OAB         -7.4930     1.9690    -1.1470 o          1 8T2      -0.656100
     11 NBC         -5.3870     2.0740    -0.3150 ns         1 8T2      -0.476900
     12 CAY         -4.9040     0.8290    -0.9120 c3         1 8T2       0.101000
     13 CAV         -3.4250     0.5720    -0.5680 c3         1 8T2      -0.096400
     14 CAW         -2.8850    -0.7370    -1.1840 c3         1 8T2      -0.071400
     15 CB          -1.3990    -0.9990    -0.8350 c3         1 8T2      -0.093400
     16 CA          -0.8040    -2.2780    -1.5000 c3         1 8T2       0.041700
     17 N           -1.6430    -3.4870    -1.3030 ns         1 8T2      -0.465900
     18 CBH         -1.9770    -4.0450    -0.0880 c          1 8T2       0.634700
     19 OAC         -1.5810    -3.5730     0.9720 o          1 8T2      -0.656100
     20 CBR         -2.8660    -5.2730    -0.1190 ca         1 8T2      -0.229600
     21 CAS         -3.3480    -5.8120    -1.3410 ca         1 8T2      -0.082000
     22 CAM         -4.1710    -6.9510    -1.3500 ca         1 8T2      -0.124000
     23 CAP         -4.5320    -7.5770    -0.1470 ca         1 8T2      -0.093000
     24 CBL         -4.0680    -7.0590     1.0700 ca         1 8T2       0.097100
     25 OAG         -4.4150    -7.6610     2.2470 oh         1 8T2      -0.533100
     26 CBO         -3.2410    -5.9150     1.0870 ca         1 8T2       0.136100
     27 OAJ         -2.8040    -5.4330     2.2900 oh         1 8T2      -0.580100
     28 C            0.6940    -2.5580    -1.1340 c          1 8T2       0.602100
     29 O            1.1350    -3.6810    -0.9130 o          1 8T2      -0.594100
     30 NBD          1.5170    -1.4510    -1.0890 ns         1 8T2      -0.496900
     31 CAZ          2.9420    -1.4960    -0.7620 c3         1 8T2       0.103000
     32 CAU          3.5490    -0.0830    -0.6810 c3         1 8T2      -0.092400
     33 CAT          5.0550    -0.0950    -0.3350 c3         1 8T2      -0.094400
     34 CAX          5.6620     1.3190    -0.2540 c3         1 8T2       0.102000
     35 NBB          7.0860     1.2760     0.0740 ns         1 8T2      -0.477900
     36 CBF          7.8840     2.3870     0.2080 c          1 8T2       0.626700
     37 OAA          7.4320     3.5160     0.0550 o          1 8T2      -0.655100
     38 CBP          9.3410     2.1540     0.5510 ca         1 8T2      -0.234600
     39 CAQ          9.8630     0.8450     0.7280 ca         1 8T2      -0.083000
     40 CAK         11.2180     0.6470     1.0470 ca         1 8T2      -0.126000
     41 CAN         12.0800     1.7440     1.1960 ca         1 8T2      -0.094000
     42 CBJ         11.5840     3.0440     1.0250 ca         1 8T2       0.096100
     43 OAE         12.4160     4.1190     1.1690 oh         1 8T2      -0.534100
     44 CBM         10.2240     3.2500     0.7050 ca         1 8T2       0.136100
     45 OAH          9.7690     4.5300     0.5450 oh         1 8T2      -0.582100
     46 H1          -8.8090     2.9880    -0.9950 ho         1 8T2       0.536000
     47 H2         -10.3490     5.5620     0.0390 ho         1 8T2       0.487000
     48 H3          -7.8720     7.2650     1.9960 ha         1 8T2       0.133000
     49 H4          -5.5900     6.2920     2.2250 ha         1 8T2       0.120000
     50 H5          -5.0140     4.1760     1.1230 ha         1 8T2       0.103000
     51 H6          -4.7530     2.6190     0.2530 hn         1 8T2       0.322500
     52 H7          -5.5190    -0.0020    -0.5420 h1         1 8T2       0.058700
     53 H8          -5.0240     0.8880    -2.0020 h1         1 8T2       0.058700
     54 H9          -2.8210     1.4160    -0.9240 hc         1 8T2       0.046700
     55 H10         -3.3110     0.5310     0.5230 hc         1 8T2       0.046700
     56 H11         -3.5000    -1.5730    -0.8300 hc         1 8T2       0.047700
     57 H12         -2.9970    -0.6950    -2.2750 hc         1 8T2       0.047700
     58 H13         -0.8180    -0.1250    -1.1510 hc         1 8T2       0.057200
     59 H14         -1.2910    -1.0650     0.2540 hc         1 8T2       0.057200
     60 H15         -0.7920    -2.0840    -2.5810 h1         1 8T2       0.070700
     61 H16         -1.9990    -3.9600    -2.1230 hn         1 8T2       0.333500
     62 H17         -3.0970    -5.3620    -2.2980 ha         1 8T2       0.104000
     63 H18         -4.5310    -7.3510    -2.2960 ha         1 8T2       0.121000
     64 H19         -5.1700    -8.4580    -0.1570 ha         1 8T2       0.133000
     65 H20         -3.9830    -7.1350     2.9590 ho         1 8T2       0.486000
     66 H21         -2.2490    -4.6320     2.0690 ho         1 8T2       0.533000
     67 H22          1.0960    -0.5540    -1.2930 hn         1 8T2       0.316500
     68 H23          3.0700    -2.0070     0.2020 h1         1 8T2       0.055700
     69 H24          3.4640    -2.0790    -1.5330 h1         1 8T2       0.055700
     70 H25          3.4030     0.4270    -1.6420 hc         1 8T2       0.048200
     71 H26          3.0090     0.4970     0.0780 hc         1 8T2       0.048200
     72 H27          5.2010    -0.6040     0.6260 hc         1 8T2       0.050200
     73 H28          5.5950    -0.6750    -1.0940 hc         1 8T2       0.050200
     74 H29          5.5350     1.8310    -1.2180 h1         1 8T2       0.057200
     75 H30          5.1380     1.9010     0.5160 h1         1 8T2       0.057200
     76 H31          7.5260     0.3770     0.2140 hn         1 8T2       0.322500
     77 H32          9.2330    -0.0340     0.6220 ha         1 8T2       0.104000
     78 H33         11.6010    -0.3630     1.1780 ha         1 8T2       0.120000
     79 H34         13.1270     1.5880     1.4420 ha         1 8T2       0.133000
     80 H35         11.8610     4.9160     1.0070 ho         1 8T2       0.486000
     81 H36          8.7980     4.4410     0.3270 ho         1 8T2       0.535000
@<TRIPOS>BOND
     1     1     2 1   
     2     1    46 1   
     3     2     3 ar  
     4     2     8 ar  
     5     3     4 1   
     6     3     5 ar  
     7     4    47 1   
     8     5     6 ar  
     9     5    48 1   
    10     6     7 ar  
    11     6    49 1   
    12     7     8 ar  
    13     7    50 1   
    14     8     9 1   
    15     9    10 2   
    16     9    11 1   
    17    11    12 1   
    18    11    51 1   
    19    12    13 1   
    20    12    52 1   
    21    12    53 1   
    22    13    14 1   
    23    13    54 1   
    24    13    55 1   
    25    14    15 1   
    26    14    56 1   
    27    14    57 1   
    28    15    16 1   
    29    15    58 1   
    30    15    59 1   
    31    16    17 1   
    32    16    28 1   
    33    16    60 1   
    34    17    18 1   
    35    17    61 1   
    36    18    19 2   
    37    18    20 1   
    38    20    21 ar  
    39    20    26 ar  
    40    21    22 ar  
    41    21    62 1   
    42    22    23 ar  
    43    22    63 1   
    44    23    24 ar  
    45    23    64 1   
    46    24    25 1   
    47    24    26 ar  
    48    25    65 1   
    49    26    27 1   
    50    27    66 1   
    51    28    29 2   
    52    28    30 1   
    53    30    31 1   
    54    30    67 1   
    55    31    32 1   
    56    31    68 1   
    57    31    69 1   
    58    32    33 1   
    59    32    70 1   
    60    32    71 1   
    61    33    34 1   
    62    33    72 1   
    63    33    73 1   
    64    34    35 1   
    65    34    74 1   
    66    34    75 1   
    67    35    36 1   
    68    35    76 1   
    69    36    37 2   
    70    36    38 1   
    71    38    39 ar  
    72    38    44 ar  
    73    39    40 ar  
    74    39    77 1   
    75    40    41 ar  
    76    40    78 1   
    77    41    42 ar  
    78    41    79 1   
    79    42    43 1   
    80    42    44 ar  
    81    43    80 1   
    82    44    45 1   
    83    45    81 1   
@<TRIPOS>SUBSTRUCTURE
     1 8T2         1 TEMP              0 ****  ****    0 ROOT
