@<TRIPOS>MOLECULE
8T2
   81    83     1     0     0
SMALL
bcc


@<TRIPOS>ATOM
      1 OAI         -9.2460     3.7930    -1.0660 oh         1 8T2      -0.544100
      2 CBN         -8.3940     4.4060    -0.2390 ca         1 8T2       0.136100
      3 CBK         -8.8500     5.5970     0.3560 ca         1 8T2       0.096100
      4 OAF        -10.0850     6.0660     0.0880 oh         1 8T2      -0.494100
      5 CAO         -8.0290     6.2890     1.2230 ca         1 8T2      -0.112000
      6 CAL         -6.7510     5.8130     1.5110 ca         1 8T2      -0.144000
      7 CAR         -6.2950     4.6490     0.9310 ca         1 8T2      -0.101000
      8 CBQ         -7.1090     3.9270     0.0480 ca         1 8T2      -0.232600
      9 CBG         -6.6880     2.6660    -0.6120 c          1 8T2       0.692700
     10 OAB         -7.4680     2.0670    -1.3750 o          1 8T2      -0.656100
     11 NBC         -5.4680     2.1900    -0.3790 ns         1 8T2      -0.543900
     12 CAY         -4.9820     0.9580    -0.9740 c3         1 8T2       0.101000
     13 CAV         -3.5040     0.7680    -0.6780 c3         1 8T2      -0.096400
     14 CAW         -2.9790    -0.5240    -1.2890 c3         1 8T2      -0.071400
     15 CB          -1.5010    -0.7430    -0.9910 c3         1 8T2      -0.093400
     16 CA          -0.9390    -1.9740    -1.7040 c3         1 8T2       0.041700
     17 N           -1.6940    -3.1760    -1.4250 ns         1 8T2      -0.532900
     18 CBH         -1.6100    -3.8140    -0.2580 c          1 8T2       0.701700
     19 OAC         -0.8620    -3.3940     0.6380 o          1 8T2      -0.656100
     20 CBR         -2.4230    -5.0360    -0.0500 ca         1 8T2      -0.229600
     21 CAS         -3.3540    -5.5100    -0.9850 ca         1 8T2      -0.100000
     22 CAM         -4.0730    -6.6580    -0.7330 ca         1 8T2      -0.142000
     23 CAP         -3.8810    -7.3610     0.4560 ca         1 8T2      -0.111000
     24 CBL         -2.9750    -6.9110     1.3940 ca         1 8T2       0.097100
     25 OAG         -2.8040    -7.6000     2.5390 oh         1 8T2      -0.494100
     26 CBO         -2.2390    -5.7380     1.1480 ca         1 8T2       0.136100
     27 OAJ         -1.3860    -5.3620     2.1060 oh         1 8T2      -0.541100
     28 C            0.5580    -2.2660    -1.5150 c          1 8T2       0.669100
     29 O            1.0280    -3.3220    -1.9120 o          1 8T2      -0.594100
     30 NBD          1.3060    -1.2920    -0.9880 ns         1 8T2      -0.563900
     31 CAZ          2.7370    -1.4290    -0.8090 c3         1 8T2       0.103000
     32 CAU          3.3510    -0.1080    -0.3760 c3         1 8T2      -0.092400
     33 CAT          4.8590    -0.2270    -0.2160 c3         1 8T2      -0.094400
     34 CAX          5.4860     1.0850     0.2290 c3         1 8T2       0.102000
     35 NBB          6.9300     0.9490     0.2810 ns         1 8T2      -0.544900
     36 CBF          7.7340     1.9220     0.7030 c          1 8T2       0.693700
     37 OAA          7.2690     2.9990     1.1130 o          1 8T2      -0.655100
     38 CBP          9.2010     1.7020     0.6730 ca         1 8T2      -0.234600
     39 CAQ          9.7960     0.4880     0.2970 ca         1 8T2      -0.101000
     40 CAK         11.1660     0.3550     0.2830 ca         1 8T2      -0.144000
     41 CAN         11.9820     1.4280     0.6410 ca         1 8T2      -0.112000
     42 CBJ         11.4220     2.6310     1.0190 ca         1 8T2       0.096100
     43 OAE         12.2210     3.6590     1.3670 oh         1 8T2      -0.495100
     44 CBM         10.0230     2.7750     1.0430 ca         1 8T2       0.136100
     45 OAH          9.5550     3.9670     1.4250 oh         1 8T2      -0.543100
     46 H1          -8.7710     2.9790    -1.3900 ho         1 8T2       0.497000
     47 H2         -10.5310     5.4880    -0.5430 ho         1 8T2       0.448000
     48 H3          -8.3880     7.2050     1.6750 ha         1 8T2       0.151000
     49 H4          -6.1170     6.3620     2.1930 ha         1 8T2       0.138000
     50 H5          -5.2980     4.3120     1.1770 ha         1 8T2       0.121000
     51 H6          -4.8580     2.6610     0.2670 hn         1 8T2       0.322500
     52 H7          -5.5510     0.1070    -0.5890 h1         1 8T2       0.058700
     53 H8          -5.1440     0.9900    -2.0540 h1         1 8T2       0.058700
     54 H9          -2.9400     1.6200    -1.0700 hc         1 8T2       0.046700
     55 H10         -3.3450     0.7530     0.4050 hc         1 8T2       0.046700
     56 H11         -3.5640    -1.3660    -0.9090 hc         1 8T2       0.047700
     57 H12         -3.1330    -0.5010    -2.3720 hc         1 8T2       0.047700
     58 H13         -0.9490     0.1370    -1.3360 hc         1 8T2       0.057200
     59 H14         -1.3470    -0.8190     0.0880 hc         1 8T2       0.057200
     60 H15         -1.0520    -1.8060    -2.7790 h1         1 8T2       0.070700
     61 H16         -2.2520    -3.5580    -2.1690 hn         1 8T2       0.333500
     62 H17         -3.5350    -4.9840    -1.9130 ha         1 8T2       0.122000
     63 H18         -4.7890    -7.0190    -1.4570 ha         1 8T2       0.139000
     64 H19         -4.4440    -8.2650     0.6540 ha         1 8T2       0.151000
     65 H20         -2.1580    -7.1550     3.1030 ho         1 8T2       0.447000
     66 H21         -0.9780    -4.5110     1.7960 ho         1 8T2       0.494000
     67 H22          0.8610    -0.4850    -0.5840 hn         1 8T2       0.316500
     68 H23          2.9540    -2.2020    -0.0640 h1         1 8T2       0.055700
     69 H24          3.1880    -1.7560    -1.7480 h1         1 8T2       0.055700
     70 H25          3.1200     0.6620    -1.1180 hc         1 8T2       0.048200
     71 H26          2.9000     0.2130     0.5690 hc         1 8T2       0.048200
     72 H27          5.0950    -1.0090     0.5120 hc         1 8T2       0.050200
     73 H28          5.3020    -0.5340    -1.1690 hc         1 8T2       0.050200
     74 H29          5.2110     1.8850    -0.4660 h1         1 8T2       0.057200
     75 H30          5.1060     1.3680     1.2130 h1         1 8T2       0.057200
     76 H31          7.3240     0.1100    -0.1090 hn         1 8T2       0.322500
     77 H32          9.1970    -0.3690     0.0200 ha         1 8T2       0.122000
     78 H33         11.6160    -0.5840    -0.0080 ha         1 8T2       0.138000
     79 H34         13.0600     1.3260     0.6280 ha         1 8T2       0.151000
     80 H35         11.6910     4.4360     1.5820 ho         1 8T2       0.447000
     81 H36          8.5620     3.8910     1.4030 ho         1 8T2       0.496000
@<TRIPOS>BOND
     1     1     2 1   
     2     1    46 1   
     3     2     3 ar  
     4     2     8 ar  
     5     3     4 1   
     6     3     5 ar  
     7     4    47 1   
     8     5     6 ar  
     9     5    48 1   
    10     6     7 ar  
    11     6    49 1   
    12     7     8 ar  
    13     7    50 1   
    14     8     9 1   
    15     9    10 2   
    16     9    11 1   
    17    11    12 1   
    18    11    51 1   
    19    12    13 1   
    20    12    52 1   
    21    12    53 1   
    22    13    14 1   
    23    13    54 1   
    24    13    55 1   
    25    14    15 1   
    26    14    56 1   
    27    14    57 1   
    28    15    16 1   
    29    15    58 1   
    30    15    59 1   
    31    16    17 1   
    32    16    28 1   
    33    16    60 1   
    34    17    18 1   
    35    17    61 1   
    36    18    19 2   
    37    18    20 1   
    38    20    21 ar  
    39    20    26 ar  
    40    21    22 ar  
    41    21    62 1   
    42    22    23 ar  
    43    22    63 1   
    44    23    24 ar  
    45    23    64 1   
    46    24    25 1   
    47    24    26 ar  
    48    25    65 1   
    49    26    27 1   
    50    27    66 1   
    51    28    29 2   
    52    28    30 1   
    53    30    31 1   
    54    30    67 1   
    55    31    32 1   
    56    31    68 1   
    57    31    69 1   
    58    32    33 1   
    59    32    70 1   
    60    32    71 1   
    61    33    34 1   
    62    33    72 1   
    63    33    73 1   
    64    34    35 1   
    65    34    74 1   
    66    34    75 1   
    67    35    36 1   
    68    35    76 1   
    69    36    37 2   
    70    36    38 1   
    71    38    39 ar  
    72    38    44 ar  
    73    39    40 ar  
    74    39    77 1   
    75    40    41 ar  
    76    40    78 1   
    77    41    42 ar  
    78    41    79 1   
    79    42    43 1   
    80    42    44 ar  
    81    43    80 1   
    82    44    45 1   
    83    45    81 1   
@<TRIPOS>SUBSTRUCTURE
     1 8T2         1 TEMP              0 ****  ****    0 ROOT
