@<TRIPOS>MOLECULE
8T3
   44    47     1     0     0
SMALL
No Charge or Current Charge


@<TRIPOS>ATOM
      1 Cl          -7.0210     2.4870     0.0840 cl         1 8T3      -0.171000
      2 C21         -5.7250     1.2940     0.1090 ca         1 8T3       0.073000
      3 C20         -4.3790     1.6840    -0.0310 ca         1 8T3       0.351900
      4 N10         -3.3450     0.8020    -0.0190 nb         1 8T3      -0.673000
      5 C25         -6.0200    -0.0680     0.2690 ca         1 8T3      -0.076000
      6 C18         -4.9540    -0.9880     0.2830 ca         1 8T3      -0.093000
      7 C12         -3.6230    -0.5300     0.1370 ca         1 8T3       0.286500
      8 C8          -2.4710    -1.5380     0.1540 c          1 8T3       0.513600
      9 O16         -2.6550    -2.7470     0.2910 o          1 8T3      -0.587100
     10 N11         -1.2110    -0.9660     0.0010 ns         1 8T3      -0.122000
     11 C15          0.1040    -1.5120    -0.0420 ca         1 8T3      -0.041000
     12 C22          0.3780    -2.8890     0.0780 ca         1 8T3      -0.109000
     13 C19          1.7030    -3.3440     0.0300 ca         1 8T3      -0.134000
     14 C13          2.7640    -2.4420    -0.1390 ca         1 8T3       0.139000
     15 F23          4.0140    -2.9530    -0.1630 f          1 8T3      -0.188000
     16 C14          1.1740    -0.6120    -0.2120 ca         1 8T3      -0.116000
     17 C7           2.5260    -1.0480    -0.2710 ca         1 8T3      -0.070300
     18 C2           3.7020    -0.0280    -0.4550 c6         1 8T3       0.225500
     19 C24          4.5030    -0.3820    -1.7510 c3         1 8T3      -0.092100
     20 C9           4.6300    -0.0670     0.8070 c6         1 8T3      -0.072400
     21 C4           5.6710     1.0590     0.8110 cx         1 8T3      -0.096700
     22 C6           5.4510     2.3130     1.6280 cx         1 8T3      -0.115400
     23 C3           5.2400     2.3360     0.1320 cx         1 8T3      -0.240000
     24 C5           3.8720     2.3920    -0.4490 c2         1 8T3       0.661200
     25 N1           3.1780     1.3490    -0.6960 n2         1 8T3      -0.702900
     26 N17          3.3320     3.6100    -0.6700 nv         1 8T3      -1.024200
     27 H20         -4.1180     2.7340    -0.1580 h4         1 8T3       0.038100
     28 H25         -7.0480    -0.4040     0.3800 ha         1 8T3       0.141000
     29 H18         -5.1580    -2.0480     0.4060 ha         1 8T3       0.155000
     30 H11         -1.2430     0.0420    -0.0990 hn         1 8T3       0.183000
     31 H22         -0.4140    -3.6200     0.2100 ha         1 8T3       0.149000
     32 H14          0.9330     0.4440    -0.2950 ha         1 8T3       0.143000
     33 H19          1.9120    -4.4060     0.1280 ha         1 8T3       0.131000
     34 H241         3.8340    -0.4620    -2.6160 hc         1 8T3       0.045367
     35 H242         5.2540     0.3800    -1.9910 hc         1 8T3       0.045367
     36 H243         5.0440    -1.3290    -1.6660 hc         1 8T3       0.045367
     37 H91C         4.0130     0.0140     1.7130 hc         1 8T3       0.061200
     38 H92C         5.1560    -1.0260     0.8860 hc         1 8T3       0.061200
     39 H4           6.6940     0.7280     0.6440 hc         1 8T3       0.086700
     40 H61C         4.5740     2.3610     2.2690 hc         1 8T3       0.076200
     41 H62C         6.3290     2.8180     2.0250 hc         1 8T3       0.076200
     42 H3           5.9890     2.8440    -0.4700 hc         1 8T3       0.100700
     43 H171         3.6830     4.3230    -0.0420 hn         1 8T3       0.466500
     44 H172         2.3240     3.5730    -0.7530 hn         1 8T3       0.466500
@<TRIPOS>BOND
     1     1     2 1   
     2     2     3 ar  
     3     2     5 ar  
     4     3     4 ar  
     5     3    27 1   
     6     4     7 ar  
     7     5     6 ar  
     8     5    28 1   
     9     6     7 ar  
    10     6    29 1   
    11     7     8 1   
    12     8     9 2   
    13     8    10 1   
    14    10    11 1   
    15    10    30 1   
    16    11    12 ar  
    17    11    16 ar  
    18    12    13 ar  
    19    12    31 1   
    20    13    14 ar  
    21    13    33 1   
    22    14    15 1   
    23    14    17 ar  
    24    16    17 ar  
    25    16    32 1   
    26    17    18 1   
    27    18    19 1   
    28    18    20 1   
    29    18    25 1   
    30    19    34 1   
    31    19    35 1   
    32    19    36 1   
    33    20    21 1   
    34    20    37 1   
    35    20    38 1   
    36    21    22 1   
    37    21    23 1   
    38    21    39 1   
    39    22    23 1   
    40    22    40 1   
    41    22    41 1   
    42    23    24 1   
    43    23    42 1   
    44    24    25 2   
    45    24    26 1   
    46    26    43 1   
    47    26    44 1   
@<TRIPOS>SUBSTRUCTURE
     1 8T3         1 TEMP              0 ****  ****    0 ROOT
