@<TRIPOS>MOLECULE
8T3
   44    47     1     0     0
SMALL
abcg2


@<TRIPOS>ATOM
      1 CL          -6.7660     2.4540    -0.0150 cl         1 8T3      -0.171000
      2 C21         -5.5330     1.2570     0.0540 ca         1 8T3       0.073000
      3 C20         -4.2070     1.6250    -0.1430 ca         1 8T3       0.351900
      4 N10         -3.2300     0.7400    -0.0970 nb         1 8T3      -0.673000
      5 C25         -5.8460    -0.0670     0.3040 ca         1 8T3      -0.076000
      6 C18         -4.8100    -0.9860     0.3490 ca         1 8T3      -0.093000
      7 C12         -3.5150    -0.5350     0.1400 ca         1 8T3       0.286500
      8 C8          -2.3690    -1.5050     0.1840 c          1 8T3       0.513600
      9 O16         -2.5600    -2.6900     0.4050 o          1 8T3      -0.587100
     10 N11         -1.1740    -0.9280    -0.0360 ns         1 8T3      -0.122000
     11 C15          0.0990    -1.5040    -0.0580 ca         1 8T3      -0.041000
     12 C22          0.3510    -2.8680     0.0560 ca         1 8T3      -0.109000
     13 C19          1.6660    -3.3080     0.0210 ca         1 8T3      -0.134000
     14 C13          2.7010    -2.4090    -0.1300 ca         1 8T3       0.139000
     15 F23          3.9520    -2.9140    -0.1510 f          1 8T3      -0.188000
     16 C14          1.1690    -0.6220    -0.2160 ca         1 8T3      -0.116000
     17 C7           2.4930    -1.0380    -0.2610 ca         1 8T3      -0.070300
     18 C2           3.6290    -0.0260    -0.4280 c6         1 8T3       0.225500
     19 C24          4.4070    -0.3330    -1.7180 c3         1 8T3      -0.092100
     20 C9           4.5500    -0.0780     0.8090 c6         1 8T3      -0.072400
     21 C4           5.5950     1.0180     0.7570 cx         1 8T3      -0.096700
     22 C6           5.4240     2.2370     1.6050 cx         1 8T3      -0.115400
     23 C3           5.1500     2.2980     0.1270 cx         1 8T3      -0.240000
     24 C5           3.7410     2.3250    -0.3430 c2         1 8T3       0.661200
     25 N1           3.0270     1.2900    -0.5630 n2         1 8T3      -0.702900
     26 N17          3.2400     3.5700    -0.5840 nv         1 8T3      -1.024200
     27 H20         -3.9400     2.6590    -0.3320 h4         1 8T3       0.038100
     28 H25         -6.8700    -0.3760     0.4630 ha         1 8T3       0.141000
     29 H18         -5.0090    -2.0300     0.5400 ha         1 8T3       0.155000
     30 H11         -1.2140     0.0720    -0.1940 hn         1 8T3       0.183000
     31 H22         -0.4410    -3.5880     0.1710 ha         1 8T3       0.149000
     32 H14          0.9800     0.4390    -0.3170 ha         1 8T3       0.143000
     33 H19          1.8850    -4.3640     0.1130 ha         1 8T3       0.131000
     34 H241         3.7440    -0.2720    -2.5820 hc         1 8T3       0.045367
     35 H242         5.2030     0.4000    -1.8550 hc         1 8T3       0.045367
     36 H243         4.8650    -1.3200    -1.7070 hc         1 8T3       0.045367
     37 H91C         3.9230     0.0320     1.6990 hc         1 8T3       0.061200
     38 H92C         5.0410    -1.0450     0.8930 hc         1 8T3       0.061200
     39 H4           6.6100     0.7050     0.5460 hc         1 8T3       0.086700
     40 H61C         4.5820     2.2700     2.2870 hc         1 8T3       0.076200
     41 H62C         6.3100     2.7470     1.9610 hc         1 8T3       0.076200
     42 H3           5.8510     2.8620    -0.4780 hc         1 8T3       0.100700
     43 H171         3.6540     4.3400    -0.0850 hn         1 8T3       0.466500
     44 H172         2.2410     3.6430    -0.7020 hn         1 8T3       0.466500
@<TRIPOS>BOND
     1     1     2 1   
     2     2     3 ar  
     3     2     5 ar  
     4     3     4 ar  
     5     3    27 1   
     6     4     7 ar  
     7     5     6 ar  
     8     5    28 1   
     9     6     7 ar  
    10     6    29 1   
    11     7     8 1   
    12     8     9 2   
    13     8    10 1   
    14    10    11 1   
    15    10    30 1   
    16    11    12 ar  
    17    11    16 ar  
    18    12    13 ar  
    19    12    31 1   
    20    13    14 ar  
    21    13    33 1   
    22    14    15 1   
    23    14    17 ar  
    24    16    17 ar  
    25    16    32 1   
    26    17    18 1   
    27    18    19 1   
    28    18    20 1   
    29    18    25 1   
    30    19    34 1   
    31    19    35 1   
    32    19    36 1   
    33    20    21 1   
    34    20    37 1   
    35    20    38 1   
    36    21    22 1   
    37    21    23 1   
    38    21    39 1   
    39    22    23 1   
    40    22    40 1   
    41    22    41 1   
    42    23    24 1   
    43    23    42 1   
    44    24    25 2   
    45    24    26 1   
    46    26    43 1   
    47    26    44 1   
@<TRIPOS>SUBSTRUCTURE
     1 8T3         1 TEMP              0 ****  ****    0 ROOT
