@<TRIPOS>MOLECULE
8T4
   30    32     1     0     0
SMALL
No Charge or Current Charge


@<TRIPOS>ATOM
      1 C1           3.5000    -1.0770    -0.0310 c3         1 8T4       0.066900
      2 N1           2.0460    -1.3140    -0.0120 na         1 8T4       0.137800
      3 C2           1.0330    -0.4410     0.3770 cc         1 8T4      -0.074200
      4 C3          -0.1510    -1.0300     0.0090 cd         1 8T4      -0.128000
      5 C4           0.2330    -2.3400    -0.3870 cd         1 8T4       0.251900
      6 N2           1.5440    -2.5340    -0.4170 nc         1 8T4      -0.507800
      7 C5          -1.5380    -0.5150     0.1050 ca         1 8T4       0.000000
      8 C6          -2.5870    -1.2020    -0.5430 ca         1 8T4      -0.099500
      9 C7          -3.9120    -0.7360    -0.4630 ca         1 8T4      -0.110000
     10 C8          -4.2080     0.4200     0.2760 ca         1 8T4      -0.109000
     11 C9          -3.1780     1.1060     0.9370 ca         1 8T4      -0.110000
     12 C10         -1.8540     0.6410     0.8560 ca         1 8T4      -0.099500
     13 N3           1.1990     0.9400     0.2400 na         1 8T4       0.112200
     14 C11          2.2330     1.5900     0.9010 cc         1 8T4      -0.178500
     15 C12          2.3520     2.7730     0.2170 cd         1 8T4      -0.176000
     16 C13          1.4550     2.7740    -0.8840 cd         1 8T4      -0.176000
     17 C14          0.7600     1.5910    -0.9080 cc         1 8T4      -0.178500
     18 H1           3.8490    -0.8590     0.9850 h1         1 8T4       0.063367
     19 H2           4.0220    -1.9650    -0.4080 h1         1 8T4       0.063367
     20 H3           3.7240    -0.2260    -0.6860 h1         1 8T4       0.063367
     21 H4          -0.4120    -3.1550    -0.6890 h4         1 8T4       0.044100
     22 H5          -2.3840    -2.0940    -1.1280 ha         1 8T4       0.116500
     23 H6          -4.7080    -1.2730    -0.9740 ha         1 8T4       0.112500
     24 H7          -5.2330     0.7790     0.3390 ha         1 8T4       0.112000
     25 H8          -3.4060     1.9960     1.5190 ha         1 8T4       0.112500
     26 H9          -1.0840     1.1790     1.4000 ha         1 8T4       0.116500
     27 H10          2.7510     1.1880     1.7630 h4         1 8T4       0.152000
     28 H11          3.0510     3.5690     0.4600 ha         1 8T4       0.135500
     29 H12          1.3610     3.5690    -1.6190 ha         1 8T4       0.135500
     30 H13          0.0320     1.1860    -1.5990 h4         1 8T4       0.152000
@<TRIPOS>BOND
     1     1     2 1   
     2     1    18 1   
     3     1    19 1   
     4     1    20 1   
     5     2     3 1   
     6     2     6 1   
     7     3     4 2   
     8     3    13 1   
     9     4     5 1   
    10     4     7 1   
    11     5     6 2   
    12     5    21 1   
    13     7     8 ar  
    14     7    12 ar  
    15     8     9 ar  
    16     8    22 1   
    17     9    10 ar  
    18     9    23 1   
    19    10    11 ar  
    20    10    24 1   
    21    11    12 ar  
    22    11    25 1   
    23    12    26 1   
    24    13    14 1   
    25    13    17 1   
    26    14    15 2   
    27    14    27 1   
    28    15    16 1   
    29    15    28 1   
    30    16    17 2   
    31    16    29 1   
    32    17    30 1   
@<TRIPOS>SUBSTRUCTURE
     1 8T4         1 TEMP              0 ****  ****    0 ROOT
