@<TRIPOS>MOLECULE
8T4
   30    32     1     0     0
SMALL
abcg2


@<TRIPOS>ATOM
      1 C1           3.4630    -1.2080    -0.2640 c3         1 8T4       0.066900
      2 N1           2.0360    -1.4200    -0.1830 na         1 8T4       0.137800
      3 C2           1.0750    -0.4800    -0.0960 cc         1 8T4      -0.074200
      4 C3          -0.1430    -1.1290    -0.0210 cd         1 8T4      -0.128000
      5 C4           0.2200    -2.4880    -0.0710 cd         1 8T4       0.251900
      6 N2           1.5270    -2.6450    -0.1560 nc         1 8T4      -0.507800
      7 C5          -1.4860    -0.5570     0.0850 ca         1 8T4       0.000000
      8 C6          -2.5830    -1.2600    -0.4190 ca         1 8T4      -0.099500
      9 C7          -3.8660    -0.7450    -0.3150 ca         1 8T4      -0.110000
     10 C8          -4.0780     0.4870     0.2890 ca         1 8T4      -0.109000
     11 C9          -2.9940     1.1960     0.7930 ca         1 8T4      -0.110000
     12 C10         -1.7110     0.6790     0.6970 ca         1 8T4      -0.099500
     13 N3           1.3740     0.8790    -0.1170 na         1 8T4       0.112200
     14 C11          1.9490     1.5860     0.9110 cc         1 8T4      -0.178500
     15 C12          1.9820     2.9030     0.5460 cd         1 8T4      -0.176000
     16 C13          1.4010     3.0010    -0.7480 cd         1 8T4      -0.176000
     17 C14          1.0330     1.7410    -1.1280 cc         1 8T4      -0.178500
     18 H1           3.8820    -0.9570     0.7100 h1         1 8T4       0.063367
     19 H2           3.9200    -2.1260    -0.6210 h1         1 8T4       0.063367
     20 H3           3.6850    -0.4070    -0.9650 h1         1 8T4       0.063367
     21 H4          -0.4300    -3.3490    -0.0270 h4         1 8T4       0.044100
     22 H5          -2.4300    -2.2130    -0.9100 ha         1 8T4       0.116500
     23 H6          -4.7020    -1.3070    -0.7110 ha         1 8T4       0.112500
     24 H7          -5.0790     0.8920     0.3700 ha         1 8T4       0.112000
     25 H8          -3.1490     2.1530     1.2730 ha         1 8T4       0.112500
     26 H9          -0.8860     1.2380     1.1190 ha         1 8T4       0.116500
     27 H10          2.2710     1.0910     1.8120 h4         1 8T4       0.152000
     28 H11          2.3770     3.7100     1.1410 ha         1 8T4       0.135500
     29 H12          1.2710     3.8970    -1.3330 ha         1 8T4       0.135500
     30 H13          0.5620     1.3770    -2.0260 h4         1 8T4       0.152000
@<TRIPOS>BOND
     1     1     2 1   
     2     1    18 1   
     3     1    19 1   
     4     1    20 1   
     5     2     3 1   
     6     2     6 1   
     7     3     4 2   
     8     3    13 1   
     9     4     5 1   
    10     4     7 1   
    11     5     6 2   
    12     5    21 1   
    13     7     8 ar  
    14     7    12 ar  
    15     8     9 ar  
    16     8    22 1   
    17     9    10 ar  
    18     9    23 1   
    19    10    11 ar  
    20    10    24 1   
    21    11    12 ar  
    22    11    25 1   
    23    12    26 1   
    24    13    14 1   
    25    13    17 1   
    26    14    15 2   
    27    14    27 1   
    28    15    16 1   
    29    15    28 1   
    30    16    17 2   
    31    16    29 1   
    32    17    30 1   
@<TRIPOS>SUBSTRUCTURE
     1 8T4         1 TEMP              0 ****  ****    0 ROOT
