@<TRIPOS>MOLECULE
8T5
   90    96     1     0     0
SMALL
No Charge or Current Charge


@<TRIPOS>ATOM
      1 N1          -4.1780    -3.0760     0.1430 n          1 8T5      -0.366800
      2 C2          -3.4090    -4.2550    -0.3770 c5         1 8T5      -0.032300
      3 C3          -3.9790    -5.4030     0.5070 c5         1 8T5      -0.074400
      4 N4           5.6790     1.3240     0.6390 ns         1 8T5      -0.503900
      5 C5          -5.3840    -3.4820     0.8890 c5         1 8T5       0.157900
      6 C6          -6.6000    -2.8200     0.2650 c2         1 8T5      -0.187200
      7 C7          -6.7480    -1.4900     0.1560 c2         1 8T5      -0.212200
      8 C8          -5.8190    -0.3620     0.5970 c6         1 8T5      -0.037500
      9 C1          -3.6050    -4.5880    -1.8990 c          1 8T5       0.719000
     10 C10         -2.1220     2.5220     0.6850 c5         1 8T5       0.034700
     11 C11          3.3800     1.8900    -0.2960 c          1 8T5       0.593100
     12 C12          4.6250     0.9360    -0.3360 c3         1 8T5       0.059700
     13 C13          4.2360    -0.5700    -0.2300 c3         1 8T5      -0.050100
     14 C14          5.4280    -1.5110    -0.4470 ca         1 8T5      -0.059300
     15 C15          5.8860    -2.4170     0.5450 ca         1 8T5       0.124000
     16 C16          6.0890    -1.4840    -1.6940 ca         1 8T5      -0.106000
     17 C17          7.1880    -2.3210    -1.9460 ca         1 8T5      -0.108000
     18 C18          7.6410    -3.2040    -0.9550 ca         1 8T5      -0.110000
     19 C19          6.9870    -3.2520     0.2860 ca         1 8T5      -0.114000
     20 C21         -4.3610    -0.6860     1.0700 c6         1 8T5       0.018700
     21 C23         -6.5260     0.4670     1.7110 c6         1 8T5      -0.076400
     22 C24         -1.9580     4.9120     0.2520 c5         1 8T5      -0.087400
     23 C25         -3.5510    -1.8350     0.3760 c          1 8T5       0.589000
     24 C26          1.3890     4.0840    -1.1500 c2         1 8T5      -0.169200
     25 C27         -1.0650     4.2060    -0.7930 c5         1 8T5       0.150900
     26 C28          0.3210     4.8420    -0.8410 c2         1 8T5      -0.235200
     27 C29          1.4280     1.1350    -3.3350 c5         1 8T5      -0.096400
     28 C30          2.8370     1.3680    -2.7440 c5         1 8T5       0.104000
     29 C31          0.1150     1.9780    -0.4070 c          1 8T5       0.579000
     30 C33          6.8900     1.6260     2.7350 c3         1 8T5      -0.182100
     31 C34          0.6890     2.4160    -2.8800 c5         1 8T5      -0.071400
     32 C35          1.1720     2.5900    -1.3980 c5         1 8T5       0.069600
     33 C4          -5.4700    -5.0110     0.5960 c5         1 8T5      -0.083400
     34 C48         -5.7030     1.7170     2.1290 c6         1 8T5      -0.112400
     35 C49         -4.2300     1.3530     2.4390 c6         1 8T5       0.083000
     36 C9          -3.0080     3.8080     0.5340 c5         1 8T5      -0.086400
     37 N2          -3.6510     0.6240     1.2780 n          1 8T5      -0.355800
     38 N3          -0.9700     2.8590    -0.1990 n          1 8T5      -0.394800
     39 N5           2.4880     1.8780    -1.4010 n          1 8T5      -0.396800
     40 O1          -4.4220    -3.9660    -2.5670 o          1 8T5      -0.723000
     41 O2          -2.8690    -5.4210    -2.4110 o          1 8T5      -0.723000
     42 O3           0.1960     0.8970     0.1660 o          1 8T5      -0.531000
     43 O4           3.1460     2.5990     0.6780 o          1 8T5      -0.573100
     44 O5           4.6540     0.7470     2.6100 o          1 8T5      -0.572100
     45 O6          -2.9810     0.8560    -0.9370 o          1 8T5      -0.543100
     46 O7          -2.3470    -1.7230     0.1680 o          1 8T5      -0.549000
     47 Cl           5.1120    -2.5570     2.1240 cl         1 8T5      -0.202000
     48 H22         -2.3290    -4.1560    -0.2090 h1         1 8T5       0.067700
     49 H32         -3.8250    -6.3980     0.0760 hc         1 8T5       0.038200
     50 H31         -3.5140    -5.4020     1.5000 hc         1 8T5       0.038200
     51 H5          -5.2830    -3.2750     1.9630 h1         1 8T5       0.021700
     52 H6          -7.4070    -3.4480    -0.1150 ha         1 8T5       0.168000
     53 H7          -7.6640    -1.1270    -0.3140 ha         1 8T5       0.156000
     54 H8          -5.7190     0.2880    -0.2850 hc         1 8T5       0.080700
     55 H10         -1.7690     2.3710     1.7130 h1         1 8T5       0.087700
     56 H12          5.0740     1.0900    -1.3240 h1         1 8T5       0.051700
     57 H13          3.7390    -0.7430     0.7290 hc         1 8T5       0.095700
     58 H2A          3.4650    -0.8060    -0.9710 hc         1 8T5       0.095700
     59 H16          5.7490    -0.8110    -2.4790 ha         1 8T5       0.124000
     60 H17          7.6890    -2.2860    -2.9120 ha         1 8T5       0.119000
     61 H18          8.4920    -3.8530    -1.1490 ha         1 8T5       0.111000
     62 H19          7.3330    -3.9420     1.0520 ha         1 8T5       0.120000
     63 H21         -4.4850    -1.1210     2.0720 h1         1 8T5       0.050700
     64 H93         -7.5210     0.7870     1.3710 hc         1 8T5       0.035700
     65 H23         -6.6920    -0.1700     2.5910 hc         1 8T5       0.035700
     66 H24         -1.3990     5.1660     1.1610 hc         1 8T5       0.051700
     67 H4A         -2.4050     5.8360    -0.1330 hc         1 8T5       0.051700
     68 H26          2.3840     4.5290    -1.2060 ha         1 8T5       0.184000
     69 H27         -1.5440     4.1700    -1.7820 h1         1 8T5       0.067700
     70 H28          0.4460     5.9100    -0.6530 ha         1 8T5       0.180000
     71 H29          1.4450     1.0170    -4.4240 hc         1 8T5       0.087200
     72 H37          0.9660     0.2350    -2.9130 hc         1 8T5       0.087200
     73 H36          3.4240     0.4430    -2.7360 h1         1 8T5       0.036700
     74 H30          3.3940     2.1260    -3.3120 h1         1 8T5       0.036700
     75 H34          7.1210     2.6600     2.4530 hc         1 8T5       0.052367
     76 H33          6.8190     1.5090     3.8220 hc         1 8T5       0.052367
     77 H35          7.7450     1.0770     2.3240 hc         1 8T5       0.052367
     78 H38          0.9890     3.2680    -3.5040 hc         1 8T5       0.065200
     79 H39         -0.3990     2.3230    -2.9730 hc         1 8T5       0.065200
     80 H41         -5.9770    -5.2310    -0.3510 hc         1 8T5       0.044200
     81 H42         -6.0040    -5.5550     1.3830 hc         1 8T5       0.044200
     82 H94         -5.7320     2.4590     1.3200 hc         1 8T5       0.036700
     83 H48         -6.1630     2.1930     3.0060 hc         1 8T5       0.036700
     84 H49         -3.6620     2.2500     2.7060 h1         1 8T5       0.051700
     85 H95         -4.2000     0.6980     3.3220 h1         1 8T5       0.051700
     86 H92         -3.7050     3.7170    -0.3080 hc         1 8T5       0.050200
     87 H91         -3.6070     4.0310     1.4230 hc         1 8T5       0.050200
     88 C20         -2.9450     1.2690     0.2180 c          1 8T5       0.588100
     89 C32          5.6250     1.1830     2.0110 c          1 8T5       0.614100
     90 H43          6.5420     1.7100     0.2720 hn         1 8T5       0.303500
@<TRIPOS>BOND
     1     1     2 1   
     2     1     5 1   
     3     1    23 1   
     4     2     3 1   
     5     2     9 1   
     6     2    48 1   
     7     3    33 1   
     8     3    49 1   
     9     3    50 1   
    10     4    12 1   
    11     4    89 1   
    12     4    90 1   
    13     5     6 1   
    14     5    33 1   
    15     5    51 1   
    16     6     7 2   
    17     6    52 1   
    18     7     8 1   
    19     7    53 1   
    20     8    20 1   
    21     8    21 1   
    22     8    54 1   
    23     9    40 1   
    24     9    41 1   
    25    10    36 1   
    26    10    38 1   
    27    10    55 1   
    28    10    88 1   
    29    11    12 1   
    30    11    39 1   
    31    11    43 2   
    32    12    13 1   
    33    12    56 1   
    34    13    14 1   
    35    13    57 1   
    36    13    58 1   
    37    14    15 ar  
    38    14    16 ar  
    39    15    19 ar  
    40    15    47 1   
    41    16    17 ar  
    42    16    59 1   
    43    17    18 ar  
    44    17    60 1   
    45    18    19 ar  
    46    18    61 1   
    47    19    62 1   
    48    20    23 1   
    49    20    37 1   
    50    20    63 1   
    51    21    34 1   
    52    21    64 1   
    53    21    65 1   
    54    22    25 1   
    55    22    36 1   
    56    22    66 1   
    57    22    67 1   
    58    23    46 2   
    59    24    26 2   
    60    24    32 1   
    61    24    68 1   
    62    25    26 1   
    63    25    38 1   
    64    25    69 1   
    65    26    70 1   
    66    27    28 1   
    67    27    31 1   
    68    27    71 1   
    69    27    72 1   
    70    28    39 1   
    71    28    73 1   
    72    28    74 1   
    73    29    32 1   
    74    29    38 1   
    75    29    42 2   
    76    30    75 1   
    77    30    76 1   
    78    30    77 1   
    79    30    89 1   
    80    31    32 1   
    81    31    78 1   
    82    31    79 1   
    83    32    39 1   
    84    33    80 1   
    85    33    81 1   
    86    34    35 1   
    87    34    82 1   
    88    34    83 1   
    89    35    37 1   
    90    35    84 1   
    91    35    85 1   
    92    36    86 1   
    93    36    87 1   
    94    37    88 1   
    95    44    89 2   
    96    45    88 2   
@<TRIPOS>SUBSTRUCTURE
     1 8T5         1 TEMP              0 ****  ****    0 ROOT
