@<TRIPOS>MOLECULE
8T5
   90    96     1     0     0
SMALL
abcg2


@<TRIPOS>ATOM
      1 N1          -3.9360    -2.7890    -0.4760 n          1 8T5      -0.366800
      2 C2          -3.2270    -3.7670    -1.2870 c5         1 8T5      -0.032300
      3 C3          -3.8960    -5.0820    -0.8790 c5         1 8T5      -0.074400
      4 N4           5.5500     1.6580     0.1820 ns         1 8T5      -0.503900
      5 C5          -5.2220    -3.2850     0.0130 c5         1 8T5       0.157900
      6 C6          -6.3980    -2.4070    -0.3050 c2         1 8T5      -0.187200
      7 C7          -6.4850    -1.1030    -0.0850 c2         1 8T5      -0.212200
      8 C8          -5.4810    -0.1990     0.5520 c6         1 8T5      -0.037500
      9 C1          -3.3580    -3.5130    -2.8040 c          1 8T5       0.719000
     10 C10         -1.8870     2.3290     1.1350 c5         1 8T5       0.034700
     11 C11          3.1370     1.8270    -0.2940 c          1 8T5       0.593100
     12 C12          4.3710     0.9230    -0.2060 c3         1 8T5       0.059700
     13 C13          4.0890    -0.3130     0.6790 c3         1 8T5      -0.050100
     14 C14          5.0700    -1.4210     0.4020 ca         1 8T5      -0.059300
     15 C15          6.2160    -1.6740     1.1550 ca         1 8T5       0.124000
     16 C16          4.8540    -2.2520    -0.7000 ca         1 8T5      -0.106000
     17 C17          5.7300    -3.2640    -1.0490 ca         1 8T5      -0.108000
     18 C18          6.8700    -3.4790    -0.2860 ca         1 8T5      -0.110000
     19 C19          7.1090    -2.6860     0.8220 ca         1 8T5      -0.114000
     20 C21         -4.1000    -0.7840     0.9030 c6         1 8T5       0.018700
     21 C23         -6.0790     0.3470     1.8670 c6         1 8T5      -0.076400
     22 C24         -1.7600     4.7220     0.7070 c5         1 8T5      -0.087400
     23 C25         -3.3280    -1.6550    -0.0950 c          1 8T5       0.589000
     24 C26          1.1190     3.7500    -1.4120 c2         1 8T5      -0.169200
     25 C27         -1.1250     3.9670    -0.4550 c5         1 8T5       0.150900
     26 C28          0.1210     4.5390    -1.0400 c2         1 8T5      -0.235200
     27 C29          0.8630     0.2700    -2.6860 c5         1 8T5      -0.096400
     28 C30          2.2920     0.3920    -2.1720 c5         1 8T5       0.104000
     29 C31          0.1290     1.8410    -0.1320 c          1 8T5       0.579000
     30 C33          7.1820     2.8630     1.4740 c3         1 8T5      -0.182100
     31 C34          0.3470     1.6980    -2.6140 c5         1 8T5      -0.071400
     32 C35          0.9910     2.2570    -1.3260 c5         1 8T5       0.069600
     33 C4          -5.3380    -4.6640    -0.6410 c5         1 8T5      -0.083400
     34 C48         -5.1440     1.2990     2.6100 c6         1 8T5      -0.112400
     35 C49         -3.7320     0.7300     2.7330 c6         1 8T5       0.083000
     36 C9          -2.6560     3.6560     1.3380 c5         1 8T5      -0.086400
     37 N2          -3.2660     0.2940     1.4190 n          1 8T5      -0.355800
     38 N3          -0.8810     2.6700     0.1520 n          1 8T5      -0.394800
     39 N5           2.2540     1.5430    -1.2710 n          1 8T5      -0.396800
     40 O1          -4.1940    -2.6780    -3.1860 o          1 8T5      -0.723000
     41 O2          -2.6080    -4.2150    -3.5140 o          1 8T5      -0.723000
     42 O3           0.3280     0.8040     0.4800 o          1 8T5      -0.531000
     43 O4           2.9640     2.7600     0.4710 o          1 8T5      -0.573100
     44 O5           5.0960     2.1290     2.3610 o          1 8T5      -0.572100
     45 O6          -2.9920     1.2170    -0.6470 o          1 8T5      -0.543100
     46 O7          -2.1800    -1.3970    -0.4200 o          1 8T5      -0.549000
     47 CL           6.5680    -0.7500     2.5810 cl         1 8T5      -0.202000
     48 H22         -2.1680    -3.7720    -1.0220 h1         1 8T5       0.067700
     49 H32         -3.7890    -5.8560    -1.6370 hc         1 8T5       0.038200
     50 H31         -3.4480    -5.4580     0.0440 hc         1 8T5       0.038200
     51 H5          -5.1620    -3.4190     1.1020 h1         1 8T5       0.021700
     52 H6          -7.2540    -2.9080    -0.7460 ha         1 8T5       0.168000
     53 H7          -7.4040    -0.6010    -0.3730 ha         1 8T5       0.156000
     54 H8          -5.3290     0.6400    -0.1330 hc         1 8T5       0.080700
     55 H10         -1.4040     2.0040     2.0580 h1         1 8T5       0.087700
     56 H12          4.5980     0.5590    -1.2100 h1         1 8T5       0.051700
     57 H13          4.0880    -0.0180     1.7260 hc         1 8T5       0.095700
     58 H2A          3.0820    -0.6750     0.4600 hc         1 8T5       0.095700
     59 H16          3.9620    -2.1070    -1.2980 ha         1 8T5       0.124000
     60 H17          5.5220    -3.8840    -1.9110 ha         1 8T5       0.119000
     61 H18          7.5680    -4.2640    -0.5450 ha         1 8T5       0.111000
     62 H19          7.9870    -2.8500     1.4310 ha         1 8T5       0.120000
     63 H21         -4.2530    -1.4540     1.7610 h1         1 8T5       0.050700
     64 H93         -7.0230     0.8530     1.6550 hc         1 8T5       0.035700
     65 H23         -6.3210    -0.5060     2.5100 hc         1 8T5       0.035700
     66 H24         -0.9850     5.0490     1.4030 hc         1 8T5       0.051700
     67 H4A         -2.3170     5.5980     0.3790 hc         1 8T5       0.051700
     68 H26          2.0120     4.1490    -1.8770 ha         1 8T5       0.184000
     69 H27         -1.8770     3.8640    -1.2520 h1         1 8T5       0.067700
     70 H28          0.1630     5.6110    -1.1890 ha         1 8T5       0.180000
     71 H29          0.8290    -0.1390    -3.6940 hc         1 8T5       0.087200
     72 H37          0.2770    -0.3810    -2.0370 hc         1 8T5       0.087200
     73 H36          2.5970    -0.5150    -1.6530 h1         1 8T5       0.036700
     74 H30          2.9990     0.5670    -2.9860 h1         1 8T5       0.036700
     75 H34          7.6940     2.9530     0.5170 hc         1 8T5       0.052367
     76 H33          7.0690     3.8590     1.9000 hc         1 8T5       0.052367
     77 H35          7.8200     2.2890     2.1480 hc         1 8T5       0.052367
     78 H38          0.7060     2.2790    -3.4670 hc         1 8T5       0.065200
     79 H39         -0.7400     1.7740    -2.5910 hc         1 8T5       0.065200
     80 H41         -5.8700    -4.5790    -1.5910 hc         1 8T5       0.044200
     81 H42         -5.8990    -5.3560    -0.0130 hc         1 8T5       0.044200
     82 H94         -5.0960     2.2540     2.0780 hc         1 8T5       0.036700
     83 H48         -5.5430     1.5160     3.6030 hc         1 8T5       0.036700
     84 H49         -3.0540     1.4650     3.1630 h1         1 8T5       0.051700
     85 H95         -3.7190    -0.1340     3.4010 h1         1 8T5       0.051700
     86 H92         -3.6140     3.6290     0.8160 hc         1 8T5       0.050200
     87 H91         -2.8610     3.8440     2.3910 hc         1 8T5       0.050200
     88 C20         -2.7740     1.2240     0.5480 c          1 8T5       0.588100
     89 C32          5.8310     2.1910     1.3910 c          1 8T5       0.614100
     90 H43          6.2350     1.7860    -0.5430 hn         1 8T5       0.303500
@<TRIPOS>BOND
     1     1     2 1   
     2     1     5 1   
     3     1    23 1   
     4     2     3 1   
     5     2     9 1   
     6     2    48 1   
     7     3    33 1   
     8     3    49 1   
     9     3    50 1   
    10     4    12 1   
    11     4    89 1   
    12     4    90 1   
    13     5     6 1   
    14     5    33 1   
    15     5    51 1   
    16     6     7 2   
    17     6    52 1   
    18     7     8 1   
    19     7    53 1   
    20     8    20 1   
    21     8    21 1   
    22     8    54 1   
    23     9    40 1   
    24     9    41 1   
    25    10    36 1   
    26    10    38 1   
    27    10    55 1   
    28    10    88 1   
    29    11    12 1   
    30    11    39 1   
    31    11    43 2   
    32    12    13 1   
    33    12    56 1   
    34    13    14 1   
    35    13    57 1   
    36    13    58 1   
    37    14    15 ar  
    38    14    16 ar  
    39    15    19 ar  
    40    15    47 1   
    41    16    17 ar  
    42    16    59 1   
    43    17    18 ar  
    44    17    60 1   
    45    18    19 ar  
    46    18    61 1   
    47    19    62 1   
    48    20    23 1   
    49    20    37 1   
    50    20    63 1   
    51    21    34 1   
    52    21    64 1   
    53    21    65 1   
    54    22    25 1   
    55    22    36 1   
    56    22    66 1   
    57    22    67 1   
    58    23    46 2   
    59    24    26 2   
    60    24    32 1   
    61    24    68 1   
    62    25    26 1   
    63    25    38 1   
    64    25    69 1   
    65    26    70 1   
    66    27    28 1   
    67    27    31 1   
    68    27    71 1   
    69    27    72 1   
    70    28    39 1   
    71    28    73 1   
    72    28    74 1   
    73    29    32 1   
    74    29    38 1   
    75    29    42 2   
    76    30    75 1   
    77    30    76 1   
    78    30    77 1   
    79    30    89 1   
    80    31    32 1   
    81    31    78 1   
    82    31    79 1   
    83    32    39 1   
    84    33    80 1   
    85    33    81 1   
    86    34    35 1   
    87    34    82 1   
    88    34    83 1   
    89    35    37 1   
    90    35    84 1   
    91    35    85 1   
    92    36    86 1   
    93    36    87 1   
    94    37    88 1   
    95    44    89 2   
    96    45    88 2   
@<TRIPOS>SUBSTRUCTURE
     1 8T5         1 TEMP              0 ****  ****    0 ROOT
