@<TRIPOS>MOLECULE
8T6
   63    65     1     0     0
SMALL
abcg2


@<TRIPOS>ATOM
      1 C1          -8.6640   -18.3320   -20.1450 cc         1 8T6      -0.195200
      2 C10         -6.1000   -14.7440   -18.2690 c3         1 8T6      -0.087433
      3 C11         -6.8060   -13.2120   -16.4270 c3         1 8T6      -0.087433
      4 C12         -9.7510   -16.8300   -18.3140 c          1 8T6       0.636300
      5 C13         -6.0850   -12.2810   -18.6190 c3         1 8T6      -0.087433
      6 C14         -9.2320   -14.4910   -17.9540 c3         1 8T6       0.039700
      7 C15        -10.6670   -13.9980   -18.1680 c          1 8T6       0.590100
      8 C17        -12.5200   -12.7790   -17.0780 c3         1 8T6       0.105700
      9 C19        -13.3120   -13.3660   -15.9110 c3         1 8T6      -0.069400
     10 C2          -8.9040   -19.6840   -20.5180 ca         1 8T6      -0.113800
     11 C20        -13.3810   -14.8840   -15.9480 c5         1 8T6      -0.156700
     12 C21        -14.0740   -15.4950   -17.1650 c5         1 8T6      -0.089400
     13 C22        -14.5910   -16.8360   -16.6460 c5         1 8T6       0.101000
     14 C24        -14.1500   -15.4810   -14.7800 c          1 8T6       0.564000
     15 C3          -9.9260   -20.1660   -19.6680 ca         1 8T6      -0.035200
     16 C30         -9.5220   -18.0470   -19.1140 cd         1 8T6      -0.138300
     17 C34         -8.2680   -13.4160   -18.4710 c3         1 8T6      -0.080400
     18 C4         -10.4160   -21.4710   -19.7610 ca         1 8T6      -0.128000
     19 C5          -9.8630   -22.2860   -20.7250 ca         1 8T6      -0.082000
     20 C6          -8.8450   -21.8260   -21.5820 ca         1 8T6      -0.142000
     21 C7          -8.3610   -20.5400   -21.4880 ca         1 8T6      -0.053000
     22 C8         -12.4110   -11.2590   -17.0120 c3         1 8T6       0.150600
     23 C9          -6.8230   -13.4380   -17.9400 c3         1 8T6      -0.046000
     24 N1         -10.2740   -19.1540   -18.8320 na         1 8T6      -0.185700
     25 N13         -9.0390   -15.7420   -18.6440 ns         1 8T6      -0.472900
     26 N16        -11.1850   -13.3390   -17.1190 ns         1 8T6      -0.504900
     27 N23        -14.8150   -16.5530   -15.2440 ns         1 8T6      -0.515900
     28 O26        -14.1510   -15.0750   -13.6300 o          1 8T6      -0.563000
     29 O33        -10.5540   -16.8440   -17.3880 o          1 8T6      -0.630100
     30 O9         -13.7050   -10.7090   -17.0490 oh         1 8T6      -0.656000
     31 H1          -7.9390   -17.6680   -20.5910 ha         1 8T6       0.201000
     32 H2          -6.5300   -15.5980   -17.7450 hc         1 8T6       0.036367
     33 H3          -6.1270   -14.9580   -19.3410 hc         1 8T6       0.036367
     34 H4          -5.0500   -14.6750   -17.9760 hc         1 8T6       0.036367
     35 H5          -7.2800   -14.0300   -15.8810 hc         1 8T6       0.036367
     36 H6          -5.7790   -13.1380   -16.0650 hc         1 8T6       0.036367
     37 H7          -7.3200   -12.2870   -16.1580 hc         1 8T6       0.036367
     38 H8          -5.0530   -12.2210   -18.2700 hc         1 8T6       0.036367
     39 H9          -6.0640   -12.4070   -19.7030 hc         1 8T6       0.036367
     40 H10         -6.5660   -11.3240   -18.4040 hc         1 8T6       0.036367
     41 H11         -9.0700   -14.6470   -16.8830 h1         1 8T6       0.074700
     42 H12        -13.0040   -13.0500   -18.0180 h1         1 8T6       0.094700
     43 H13        -12.8580   -13.0440   -14.9690 hc         1 8T6       0.065200
     44 H14        -14.3240   -12.9550   -15.9300 hc         1 8T6       0.065200
     45 H15        -12.3650   -15.2930   -15.8770 hc         1 8T6       0.087700
     46 H16        -13.4170   -15.6100   -18.0250 hc         1 8T6       0.064700
     47 H17        -14.9160   -14.8660   -17.4680 hc         1 8T6       0.064700
     48 H18        -15.5110   -17.1530   -17.1360 h1         1 8T6       0.043700
     49 H19        -13.8490   -17.6300   -16.7780 h1         1 8T6       0.043700
     50 H20         -8.6910   -12.4410   -18.2110 hc         1 8T6       0.056700
     51 H21         -8.2590   -13.4530   -19.5660 hc         1 8T6       0.056700
     52 H22        -11.1990   -21.8260   -19.1030 ha         1 8T6       0.117000
     53 H23        -10.2190   -23.3030   -20.8260 ha         1 8T6       0.112000
     54 H24         -8.4390   -22.5000   -22.3260 ha         1 8T6       0.112000
     55 H25         -7.5780   -20.1920   -22.1500 ha         1 8T6       0.115000
     56 H26        -11.8750   -10.9810   -16.0940 h1         1 8T6       0.021200
     57 H27        -11.8000   -10.9190   -17.8590 h1         1 8T6       0.021200
     58 H28        -10.9780   -19.1930   -18.1120 hn         1 8T6       0.369000
     59 H29         -8.4710   -15.7480   -19.4760 hn         1 8T6       0.332500
     60 H30        -10.6340   -13.2830   -16.2740 hn         1 8T6       0.313500
     61 H31        -15.3060   -17.1850   -14.6310 hn         1 8T6       0.323500
     62 H32        -13.6330    -9.7560   -16.9400 ho         1 8T6       0.448000
     63 O38        -11.2450   -14.1670   -19.2290 o          1 8T6      -0.596100
@<TRIPOS>BOND
     1     1    10 1   
     2     1    16 2   
     3     1    31 1   
     4     2    23 1   
     5     2    32 1   
     6     2    33 1   
     7     2    34 1   
     8     3    23 1   
     9     3    35 1   
    10     3    36 1   
    11     3    37 1   
    12     4    16 1   
    13     4    25 1   
    14     4    29 2   
    15     5    23 1   
    16     5    38 1   
    17     5    39 1   
    18     5    40 1   
    19     6     7 1   
    20     6    17 1   
    21     6    25 1   
    22     6    41 1   
    23     7    26 1   
    24     7    63 2   
    25     8     9 1   
    26     8    22 1   
    27     8    26 1   
    28     8    42 1   
    29     9    11 1   
    30     9    43 1   
    31     9    44 1   
    32    10    15 ar  
    33    10    21 ar  
    34    11    12 1   
    35    11    14 1   
    36    11    45 1   
    37    12    13 1   
    38    12    46 1   
    39    12    47 1   
    40    13    27 1   
    41    13    48 1   
    42    13    49 1   
    43    14    27 1   
    44    14    28 2   
    45    15    18 ar  
    46    15    24 1   
    47    16    24 1   
    48    17    23 1   
    49    17    50 1   
    50    17    51 1   
    51    18    19 ar  
    52    18    52 1   
    53    19    20 ar  
    54    19    53 1   
    55    20    21 ar  
    56    20    54 1   
    57    21    55 1   
    58    22    30 1   
    59    22    56 1   
    60    22    57 1   
    61    24    58 1   
    62    25    59 1   
    63    26    60 1   
    64    27    61 1   
    65    30    62 1   
@<TRIPOS>SUBSTRUCTURE
     1 8T6         1 TEMP              0 ****  ****    0 ROOT
