@<TRIPOS>MOLECULE
8T6
   63    65     1     0     0
SMALL
No Charge or Current Charge


@<TRIPOS>ATOM
      1 C1          -8.7980   -18.2600   -20.7430 cc         1 8T6      -0.195200
      2 C10         -6.4410   -15.4680   -17.8910 c3         1 8T6      -0.087433
      3 C11         -7.3700   -14.2380   -15.8810 c3         1 8T6      -0.087433
      4 C12         -9.3970   -17.4730   -18.3610 c          1 8T6       0.636300
      5 C13         -6.2000   -12.9710   -17.7180 c3         1 8T6      -0.087433
      6 C14         -9.6330   -14.9740   -18.0000 c3         1 8T6       0.039700
      7 C15        -11.0170   -14.3620   -18.3680 c          1 8T6       0.590100
      8 C17        -12.8140   -12.7850   -17.5570 c3         1 8T6       0.105700
      9 C19        -13.4360   -12.5470   -16.1550 c3         1 8T6      -0.069400
     10 C2          -8.5710   -19.5310   -21.3590 ca         1 8T6      -0.113800
     11 C20        -13.6110   -13.8240   -15.2840 c5         1 8T6      -0.156700
     12 C21        -14.4990   -14.9360   -15.9120 c5         1 8T6      -0.089400
     13 C22        -14.8970   -15.7580   -14.6560 c5         1 8T6       0.101000
     14 C24        -14.3000   -13.5660   -13.9370 c          1 8T6       0.564000
     15 C3          -8.7310   -20.4850   -20.3950 ca         1 8T6      -0.035200
     16 C30         -9.0940   -18.5040   -19.3980 cd         1 8T6      -0.138300
     17 C34         -8.4940   -13.9210   -18.1690 c3         1 8T6      -0.080400
     18 C4          -8.5740   -21.8480   -20.6860 ca         1 8T6      -0.128000
     19 C5          -8.2430   -22.2120   -22.0100 ca         1 8T6      -0.082000
     20 C6          -8.0780   -21.2180   -23.0040 ca         1 8T6      -0.142000
     21 C7          -8.2430   -19.8530   -22.6820 ca         1 8T6      -0.053000
     22 C8         -12.6530   -11.4820   -18.3880 c3         1 8T6       0.150600
     23 C9          -7.1420   -14.1680   -17.4150 c3         1 8T6      -0.046000
     24 N1          -9.0510   -19.9070   -19.1780 na         1 8T6      -0.185700
     25 N13         -9.3820   -16.1770   -18.8250 ns         1 8T6      -0.472900
     26 N16        -11.5280   -13.4840   -17.4340 ns         1 8T6      -0.504900
     27 N23        -15.0360   -14.6880   -13.6700 ns         1 8T6      -0.515900
     28 O26        -14.4080   -12.5290   -13.3030 o          1 8T6      -0.563000
     29 O33         -9.6400   -17.7510   -17.1940 o          1 8T6      -0.630100
     30 O9         -13.9250   -10.8650   -18.6400 oh         1 8T6      -0.656000
     31 H1          -8.7440   -17.2920   -21.2360 ha         1 8T6       0.201000
     32 H2          -6.9840   -16.3600   -17.5620 hc         1 8T6       0.036367
     33 H3          -6.3610   -15.4960   -18.9850 hc         1 8T6       0.036367
     34 H4          -5.4280   -15.5390   -17.4770 hc         1 8T6       0.036367
     35 H5          -7.9530   -15.1220   -15.6000 hc         1 8T6       0.036367
     36 H6          -6.4130   -14.2960   -15.3480 hc         1 8T6       0.036367
     37 H7          -7.9020   -13.3490   -15.5210 hc         1 8T6       0.036367
     38 H8          -5.2370   -13.0880   -17.2060 hc         1 8T6       0.036367
     39 H9          -6.0010   -12.8900   -18.7940 hc         1 8T6       0.036367
     40 H10         -6.6440   -12.0260   -17.3840 hc         1 8T6       0.036367
     41 H11         -9.7060   -15.2630   -16.9450 h1         1 8T6       0.074700
     42 H12        -13.5000   -13.4390   -18.1140 h1         1 8T6       0.094700
     43 H13        -12.8130   -11.8220   -15.6160 hc         1 8T6       0.065200
     44 H14        -14.4140   -12.0670   -16.2830 hc         1 8T6       0.065200
     45 H15        -12.6310   -14.2580   -15.0560 hc         1 8T6       0.087700
     46 H16        -13.9730   -15.5390   -16.6610 hc         1 8T6       0.064700
     47 H17        -15.3880   -14.5120   -16.3930 hc         1 8T6       0.064700
     48 H18        -15.8270   -16.3210   -14.8090 h1         1 8T6       0.043700
     49 H19        -14.1050   -16.4630   -14.3690 h1         1 8T6       0.043700
     50 H20         -8.8790   -12.9500   -17.8330 hc         1 8T6       0.056700
     51 H21         -8.2950   -13.7950   -19.2410 hc         1 8T6       0.056700
     52 H22         -8.7020   -22.6050   -19.9160 ha         1 8T6       0.117000
     53 H23         -8.1140   -23.2610   -22.2660 ha         1 8T6       0.112000
     54 H24         -7.8230   -21.5060   -24.0210 ha         1 8T6       0.112000
     55 H25         -8.1200   -19.0790   -23.4360 ha         1 8T6       0.115000
     56 H26        -11.9950   -10.7900   -17.8470 h1         1 8T6       0.021200
     57 H27        -12.1640   -11.7270   -19.3410 h1         1 8T6       0.021200
     58 H28         -9.2220   -20.3850   -18.2980 hn         1 8T6       0.369000
     59 H29         -9.2170   -16.0560   -19.8150 hn         1 8T6       0.332500
     60 H30        -10.9640   -13.3120   -16.6100 hn         1 8T6       0.313500
     61 H31        -15.6420   -14.6980   -12.8580 hn         1 8T6       0.323500
     62 H32        -13.7510   -10.0570   -19.1730 ho         1 8T6       0.448000
     63 O38        -11.6240   -14.6310   -19.3970 o          1 8T6      -0.596100
@<TRIPOS>BOND
     1     1    10 1   
     2     1    16 2   
     3     1    31 1   
     4     2    23 1   
     5     2    32 1   
     6     2    33 1   
     7     2    34 1   
     8     3    23 1   
     9     3    35 1   
    10     3    36 1   
    11     3    37 1   
    12     4    16 1   
    13     4    25 1   
    14     4    29 2   
    15     5    23 1   
    16     5    38 1   
    17     5    39 1   
    18     5    40 1   
    19     6     7 1   
    20     6    17 1   
    21     6    25 1   
    22     6    41 1   
    23     7    26 1   
    24     7    63 2   
    25     8     9 1   
    26     8    22 1   
    27     8    26 1   
    28     8    42 1   
    29     9    11 1   
    30     9    43 1   
    31     9    44 1   
    32    10    15 ar  
    33    10    21 ar  
    34    11    12 1   
    35    11    14 1   
    36    11    45 1   
    37    12    13 1   
    38    12    46 1   
    39    12    47 1   
    40    13    27 1   
    41    13    48 1   
    42    13    49 1   
    43    14    27 1   
    44    14    28 2   
    45    15    18 ar  
    46    15    24 1   
    47    16    24 1   
    48    17    23 1   
    49    17    50 1   
    50    17    51 1   
    51    18    19 ar  
    52    18    52 1   
    53    19    20 ar  
    54    19    53 1   
    55    20    21 ar  
    56    20    54 1   
    57    21    55 1   
    58    22    30 1   
    59    22    56 1   
    60    22    57 1   
    61    24    58 1   
    62    25    59 1   
    63    26    60 1   
    64    27    61 1   
    65    30    62 1   
@<TRIPOS>SUBSTRUCTURE
     1 8T6         1 TEMP              0 ****  ****    0 ROOT
