@<TRIPOS>MOLECULE
8T7
   27    28     1     0     0
SMALL
No Charge or Current Charge


@<TRIPOS>ATOM
      1 N1          -2.3050    -1.3130    -0.0290 na         1 8T7       0.119800
      2 N3          -0.5480    -3.0040     0.0960 nv         1 8T7      -1.049000
      3 C4           1.2270    -0.5120     0.0300 ca         1 8T7       0.006000
      4 C5           1.9290     0.3790    -0.8120 ca         1 8T7      -0.103500
      5 C6           3.3340     0.3810    -0.8510 ca         1 8T7      -0.107500
      6 C7           4.0630    -0.5060    -0.0450 ca         1 8T7      -0.108000
      7 C8           3.3820    -1.3970     0.7990 ca         1 8T7      -0.107500
      8 C10         -1.2170     0.5120    -0.1140 cc         1 8T7       0.176300
      9 C1          -3.4740    -2.2060    -0.0540 c3         1 8T7       0.066900
     10 C2          -0.9570    -1.6880     0.0880 cd         1 8T7       0.222000
     11 C3          -0.2490    -0.5190     0.0770 cc         1 8T7      -0.173000
     12 C9           1.9770    -1.4000     0.8340 ca         1 8T7      -0.103500
     13 C11         -0.9040     2.0060    -0.1820 c3         1 8T7       0.290700
     14 F1          -1.9330     2.7570     0.2790 f          1 8T7      -0.107333
     15 F2           0.1740     2.3470     0.5610 f          1 8T7      -0.107333
     16 F3          -0.6700     2.4130    -1.4510 f          1 8T7      -0.107333
     17 N2          -2.4620     0.0580    -0.1600 nd         1 8T7      -0.473800
     18 H1           0.4380    -3.2160    -0.0420 hn         1 8T7       0.457500
     19 H2          -1.2110    -3.7530    -0.0960 hn         1 8T7       0.457500
     20 H3           1.3940     1.0520    -1.4720 ha         1 8T7       0.113500
     21 H4           3.8580     1.0680    -1.5120 ha         1 8T7       0.113000
     22 H5           5.1510    -0.5040    -0.0730 ha         1 8T7       0.113000
     23 H6           3.9430    -2.0810     1.4320 ha         1 8T7       0.113000
     24 H7          -3.4560    -2.8060    -0.9710 h1         1 8T7       0.061700
     25 H8          -3.4460    -2.8690     0.8190 h1         1 8T7       0.061700
     26 H9          -4.3980    -1.6150    -0.0270 h1         1 8T7       0.061700
     27 H10          1.4740    -2.0750     1.5220 ha         1 8T7       0.113500
@<TRIPOS>BOND
     1     1     9 1   
     2     1    10 1   
     3     1    17 1   
     4     2    10 1   
     5     2    18 1   
     6     2    19 1   
     7     3     4 ar  
     8     3    11 1   
     9     3    12 ar  
    10     4     5 ar  
    11     4    20 1   
    12     5     6 ar  
    13     5    21 1   
    14     6     7 ar  
    15     6    22 1   
    16     7    12 ar  
    17     7    23 1   
    18     8    11 1   
    19     8    13 1   
    20     8    17 2   
    21     9    24 1   
    22     9    25 1   
    23     9    26 1   
    24    10    11 2   
    25    12    27 1   
    26    13    14 1   
    27    13    15 1   
    28    13    16 1   
@<TRIPOS>SUBSTRUCTURE
     1 8T7         1 TEMP              0 ****  ****    0 ROOT
