@<TRIPOS>MOLECULE
8T7
   27    28     1     0     0
SMALL
abcg2


@<TRIPOS>ATOM
      1 N1          -2.2800    -1.3070    -0.1030 na         1 8T7       0.119800
      2 N3          -0.6410    -3.0240    -0.2580 nv         1 8T7      -1.049000
      3 C4           1.2560    -0.5120    -0.0600 ca         1 8T7       0.006000
      4 C5           1.9680     0.2430    -0.9930 ca         1 8T7      -0.103500
      5 C6           3.3550     0.2630    -0.9780 ca         1 8T7      -0.107500
      6 C7           4.0570    -0.4820    -0.0380 ca         1 8T7      -0.108000
      7 C8           3.3590    -1.2420     0.8920 ca         1 8T7      -0.107500
      8 C10         -1.1690     0.4710    -0.0250 cc         1 8T7       0.176300
      9 C1          -3.4410    -2.1620    -0.1390 c3         1 8T7       0.066900
     10 C2          -0.9930    -1.7070    -0.1170 cd         1 8T7       0.222000
     11 C3          -0.2110    -0.5600    -0.0720 cc         1 8T7      -0.173000
     12 C9           1.9720    -1.2520     0.8840 ca         1 8T7      -0.103500
     13 C11         -0.9260     1.9350     0.0390 c3         1 8T7       0.290700
     14 F1          -2.0060     2.6020     0.4510 f          1 8T7      -0.107333
     15 F2           0.0760     2.2320     0.8760 f          1 8T7      -0.107333
     16 F3          -0.5880     2.4470    -1.1570 f          1 8T7      -0.107333
     17 N2          -2.4020     0.0190    -0.0320 nd         1 8T7      -0.473800
     18 H1           0.3460    -3.1910    -0.1340 hn         1 8T7       0.457500
     19 H2          -1.1800    -3.6840     0.2840 hn         1 8T7       0.457500
     20 H3           1.4360     0.8030    -1.7510 ha         1 8T7       0.113500
     21 H4           3.8910     0.8530    -1.7100 ha         1 8T7       0.113000
     22 H5           5.1390    -0.4690    -0.0300 ha         1 8T7       0.113000
     23 H6           3.8960    -1.8200     1.6330 ha         1 8T7       0.113000
     24 H7          -3.4010    -2.8210    -1.0050 h1         1 8T7       0.061700
     25 H8          -3.5120    -2.7660     0.7660 h1         1 8T7       0.061700
     26 H9          -4.3240    -1.5360    -0.2120 h1         1 8T7       0.061700
     27 H10          1.4380    -1.8250     1.6330 ha         1 8T7       0.113500
@<TRIPOS>BOND
     1     1     9 1   
     2     1    10 1   
     3     1    17 1   
     4     2    10 1   
     5     2    18 1   
     6     2    19 1   
     7     3     4 ar  
     8     3    11 1   
     9     3    12 ar  
    10     4     5 ar  
    11     4    20 1   
    12     5     6 ar  
    13     5    21 1   
    14     6     7 ar  
    15     6    22 1   
    16     7    12 ar  
    17     7    23 1   
    18     8    11 1   
    19     8    13 1   
    20     8    17 2   
    21     9    24 1   
    22     9    25 1   
    23     9    26 1   
    24    10    11 2   
    25    12    27 1   
    26    13    14 1   
    27    13    15 1   
    28    13    16 1   
@<TRIPOS>SUBSTRUCTURE
     1 8T7         1 TEMP              0 ****  ****    0 ROOT
