@<TRIPOS>MOLECULE
8T8
   45    48     1     0     0
SMALL
No Charge or Current Charge


@<TRIPOS>ATOM
      1 FAA         -5.4150    -2.7750     1.7090 f          1 8T8      -0.112000
      2 CBA         -5.6310    -2.9460     0.3850 c3         1 8T8       0.513000
      3 FAB         -4.5550    -3.5790    -0.1360 f          1 8T8      -0.112000
      4 FAC         -6.6790    -3.7900     0.2640 f          1 8T8      -0.112000
      5 OAR         -5.9040    -1.6990    -0.2860 os         1 8T8      -0.403100
      6 CAU         -5.0190    -0.6370    -0.3360 ca         1 8T8       0.103100
      7 CAK         -3.7350    -0.6640     0.2740 ca         1 8T8      -0.114000
      8 CAI         -5.4410     0.5190    -1.0370 ca         1 8T8      -0.135000
      9 CAJ         -4.6050     1.6520    -1.1410 ca         1 8T8      -0.052000
     10 CAY         -3.3500     1.5860    -0.5260 ca         1 8T8      -0.083800
     11 CAX         -2.9300     0.4760     0.1540 ca         1 8T8      -0.042200
     12 NAQ         -1.6550     0.7010     0.6480 na         1 8T8      -0.198700
     13 CAW         -1.2260     1.9920     0.2850 cc         1 8T8      -0.055300
     14 CAV         -2.2730     2.5440    -0.4430 cd         1 8T8      -0.135400
     15 CAM         -2.1810     3.9330    -1.0390 c6         1 8T8      -0.001200
     16 CAL         -1.0110     4.7440    -0.4180 c6         1 8T8      -0.070400
     17 CAN          0.2850     3.8940    -0.3170 c6         1 8T8      -0.103400
     18 CAZ          0.0870     2.6660     0.6160 c6         1 8T8       0.232700
     19 NAP          1.1790     1.6790     0.4810 n7         1 8T8      -0.885400
     20 CAO          2.5290     2.0850     0.9130 c3         1 8T8       0.212100
     21 CAT          3.5100     0.9370     0.7240 ca         1 8T8      -0.079300
     22 CAG          4.3010     0.8600    -0.4410 ca         1 8T8      -0.098500
     23 CAE          5.2080    -0.2010    -0.6130 ca         1 8T8      -0.085500
     24 CAS          5.3290    -1.1880     0.3790 ca         1 8T8      -0.014900
     25 Br           6.5620    -2.6310     0.1440 br         1 8T8      -0.098100
     26 CAF          4.5440    -1.1190     1.5420 ca         1 8T8      -0.085500
     27 CAH          3.6370    -0.0590     1.7130 ca         1 8T8      -0.098500
     28 H1          -3.3660    -1.5250     0.8210 ha         1 8T8       0.135000
     29 H2          -6.4230     0.5340    -1.5020 ha         1 8T8       0.132000
     30 H3          -4.9230     2.5420    -1.6780 ha         1 8T8       0.122000
     31 H4          -1.0980     0.0360     1.1730 hn         1 8T8       0.365000
     32 H5          -2.0310     3.8550    -2.1240 hc         1 8T8       0.049200
     33 H6          -3.1240     4.4790    -0.8980 hc         1 8T8       0.049200
     34 H7          -0.8260     5.6450    -1.0180 hc         1 8T8       0.045200
     35 H8          -1.2970     5.0920     0.5850 hc         1 8T8       0.045200
     36 H9           0.5760     3.5610    -1.3220 hc         1 8T8       0.045700
     37 H10          1.1060     4.5210     0.0580 hc         1 8T8       0.045700
     38 H11          0.0450     3.0210     1.6580 h1         1 8T8       0.071700
     39 H12          1.2310     1.3930    -0.5020 hn         1 8T8       0.425000
     40 H14          2.8790     2.9510     0.3350 h1         1 8T8       0.042200
     41 H15          2.5210     2.3810     1.9710 h1         1 8T8       0.042200
     42 H16          4.2120     1.6210    -1.2130 ha         1 8T8       0.120000
     43 H17          5.8160    -0.2560    -1.5140 ha         1 8T8       0.130000
     44 H18          4.6360    -1.8850     2.3080 ha         1 8T8       0.130000
     45 H19          3.0280    -0.0110     2.6140 ha         1 8T8       0.120000
@<TRIPOS>BOND
     1     1     2 1   
     2     2     3 1   
     3     2     4 1   
     4     2     5 1   
     5     5     6 1   
     6     6     7 ar  
     7     6     8 ar  
     8     7    11 ar  
     9     7    28 1   
    10     8     9 ar  
    11     8    29 1   
    12     9    10 ar  
    13     9    30 1   
    14    10    11 ar  
    15    10    14 1   
    16    11    12 1   
    17    12    13 1   
    18    12    31 1   
    19    13    14 2   
    20    13    18 1   
    21    14    15 1   
    22    15    16 1   
    23    15    32 1   
    24    15    33 1   
    25    16    17 1   
    26    16    34 1   
    27    16    35 1   
    28    17    18 1   
    29    17    36 1   
    30    17    37 1   
    31    18    19 1   
    32    18    38 1   
    33    19    20 1   
    34    19    39 1   
    35    20    21 1   
    36    20    40 1   
    37    20    41 1   
    38    21    22 ar  
    39    21    27 ar  
    40    22    23 ar  
    41    22    42 1   
    42    23    24 ar  
    43    23    43 1   
    44    24    25 1   
    45    24    26 ar  
    46    26    27 ar  
    47    26    44 1   
    48    27    45 1   
@<TRIPOS>SUBSTRUCTURE
     1 8T8         1 TEMP              0 ****  ****    0 ROOT
