@<TRIPOS>MOLECULE
8T8
   45    48     1     0     0
SMALL
bcc


@<TRIPOS>ATOM
      1 FAA         -7.0090    -1.5150     1.0480 f          1 8T8      -0.233300
      2 CBA         -6.0900    -2.4360     0.7460 c3         1 8T8       0.853700
      3 FAB         -5.3270    -2.5830     1.8320 f          1 8T8      -0.233300
      4 FAC         -6.7130    -3.5840     0.5210 f          1 8T8      -0.233300
      5 OAR         -5.3870    -2.1330    -0.3480 os         1 8T8      -0.379900
      6 CAU         -4.6700    -0.9340    -0.3480 ca         1 8T8       0.103100
      7 CAK         -3.3610    -0.9480     0.0860 ca         1 8T8      -0.132000
      8 CAI         -5.2980     0.2130    -0.8450 ca         1 8T8      -0.153000
      9 CAJ         -4.5990     1.4030    -0.9120 ca         1 8T8      -0.070000
     10 CAY         -3.2720     1.4440    -0.4770 ca         1 8T8      -0.083800
     11 CAX         -2.6730     0.2590     0.0150 ca         1 8T8      -0.042200
     12 NAQ         -1.3920     0.5610     0.3650 na         1 8T8      -0.148400
     13 CAW         -1.1560     1.8830     0.1050 cc         1 8T8      -0.055300
     14 CAV         -2.2770     2.4690    -0.4080 cd         1 8T8      -0.135400
     15 CAM         -2.3370     3.9100    -0.7970 c6         1 8T8      -0.001200
     16 CAL         -1.1400     4.6570    -0.2050 c6         1 8T8      -0.070400
     17 CAN          0.1660     3.8850    -0.3900 c6         1 8T8      -0.103400
     18 CAZ          0.1500     2.5540     0.3760 c6         1 8T8       0.232700
     19 NAP          1.2380     1.6360     0.0940 n7         1 8T8      -0.830200
     20 CAO          2.5360     2.0770     0.5610 c3         1 8T8       0.212100
     21 CAT          3.5550     0.9680     0.4950 ca         1 8T8      -0.079300
     22 CAG          4.8730     1.2400     0.1460 ca         1 8T8      -0.116500
     23 CAE          5.8350     0.2390     0.1200 ca         1 8T8      -0.103500
     24 CAS          5.4640    -1.0560     0.4440 ca         1 8T8      -0.014900
     25 BR           6.7600    -2.4330     0.4080 br         1 8T8      -0.098100
     26 CAF          4.1550    -1.3590     0.7880 ca         1 8T8      -0.103500
     27 CAH          3.2100    -0.3440     0.8110 ca         1 8T8      -0.116500
     28 H1          -2.8930    -1.8540     0.4480 ha         1 8T8       0.153000
     29 H2          -6.3220     0.1590    -1.1890 ha         1 8T8       0.150000
     30 H3          -5.0820     2.2910    -1.3000 ha         1 8T8       0.140000
     31 H4          -0.6920    -0.0850     0.6920 hn         1 8T8       0.314700
     32 H5          -2.3350     4.0090    -1.8880 hc         1 8T8       0.049200
     33 H6          -3.2700     4.3670    -0.4550 hc         1 8T8       0.049200
     34 H7          -1.0550     5.6450    -0.6600 hc         1 8T8       0.045200
     35 H8          -1.3100     4.8210     0.8640 hc         1 8T8       0.045200
     36 H9           0.3260     3.6780    -1.4550 hc         1 8T8       0.045700
     37 H10          1.0090     4.4920    -0.0550 hc         1 8T8       0.045700
     38 H11          0.2070     2.7780     1.4500 h1         1 8T8       0.071700
     39 H12          1.2790     1.4420    -0.9000 hn         1 8T8       0.369800
     40 H14          2.9270     2.9530     0.0260 h1         1 8T8       0.042200
     41 H15          2.4240     2.3900     1.6040 h1         1 8T8       0.042200
     42 H16          5.1640     2.2500    -0.1150 ha         1 8T8       0.138000
     43 H17          6.8540     0.4780    -0.1560 ha         1 8T8       0.148000
     44 H18          3.8630    -2.3700     1.0370 ha         1 8T8       0.148000
     45 H19          2.1870    -0.5800     1.0710 ha         1 8T8       0.138000
@<TRIPOS>BOND
     1     1     2 1   
     2     2     3 1   
     3     2     4 1   
     4     2     5 1   
     5     5     6 1   
     6     6     7 ar  
     7     6     8 ar  
     8     7    11 ar  
     9     7    28 1   
    10     8     9 ar  
    11     8    29 1   
    12     9    10 ar  
    13     9    30 1   
    14    10    11 ar  
    15    10    14 1   
    16    11    12 1   
    17    12    13 1   
    18    12    31 1   
    19    13    14 2   
    20    13    18 1   
    21    14    15 1   
    22    15    16 1   
    23    15    32 1   
    24    15    33 1   
    25    16    17 1   
    26    16    34 1   
    27    16    35 1   
    28    17    18 1   
    29    17    36 1   
    30    17    37 1   
    31    18    19 1   
    32    18    38 1   
    33    19    20 1   
    34    19    39 1   
    35    20    21 1   
    36    20    40 1   
    37    20    41 1   
    38    21    22 ar  
    39    21    27 ar  
    40    22    23 ar  
    41    22    42 1   
    42    23    24 ar  
    43    23    43 1   
    44    24    25 1   
    45    24    26 ar  
    46    26    27 ar  
    47    26    44 1   
    48    27    45 1   
@<TRIPOS>SUBSTRUCTURE
     1 8T8         1 TEMP              0 ****  ****    0 ROOT
