@<TRIPOS>MOLECULE
8T9
   65    68     1     0     0
SMALL
No Charge or Current Charge


@<TRIPOS>ATOM
      1 C10          0.5380    -1.0900     2.0730 c6         1 8T9      -0.038200
      2 C13          1.7290    -2.5540     0.3230 c          1 8T9       0.567100
      3 C15          2.5160    -0.4320    -1.0240 c          1 8T9       0.623100
      4 C17          0.5220    -1.8430    -1.8480 c3         1 8T9      -0.113100
      5 C20         -2.6530     0.0670    -1.5250 c2         1 8T9      -0.148200
      6 C21         -4.9520    -0.4740    -0.6770 c          1 8T9       0.662300
      7 C22         -3.8900    -0.4440    -1.7240 ce         1 8T9      -0.314200
      8 C26          3.7380     3.4860    -1.5810 c3         1 8T9       0.152900
      9 C01         -2.2410     0.6780    -0.1850 c6         1 8T9      -0.004600
     10 C02         -1.4660    -0.3830     0.6700 c2         1 8T9      -0.074400
     11 C03         -1.3360     1.9190    -0.4820 c6         1 8T9      -0.065400
     12 C04          0.1470     1.5780    -0.7160 c6         1 8T9      -0.086400
     13 C05          0.8160     0.9160     0.5370 c6         1 8T9       0.035200
     14 C06         -0.1400    -0.2210     1.0230 c2         1 8T9      -0.136400
     15 C07          2.3380     0.4430     0.2490 c6         1 8T9      -0.148800
     16 C08          2.8630    -0.5300     1.3580 c2         1 8T9      -0.093400
     17 C09          1.8830    -1.6970     1.6270 c6         1 8T9      -0.096800
     18 C11          0.8360     1.9670     1.7080 c3         1 8T9      -0.087100
     19 C12          4.1050    -0.5070     1.8980 c2         1 8T9      -0.280000
     20 O01          1.7660    -3.7830     0.3590 o          1 8T9      -0.509100
     21 C14          1.8710    -1.8600    -1.0780 c6         1 8T9       0.002000
     22 O02          3.8750    -0.0660    -2.2790 o          1 8T9      -0.496100
     23 C16          2.3650    -2.6370     2.7950 c3         1 8T9      -0.078100
     24 O03          2.7390    -2.7030    -1.8970 oh         1 8T9      -0.633000
     25 C18         -2.2900    -1.6230     1.0540 c3         1 8T9      -0.068900
     26 C19         -3.5820     1.1820     0.5220 c6         1 8T9       0.218000
     27 O04         -4.6220     0.1780     0.4860 os         1 8T9      -0.451100
     28 O05         -6.0170    -1.0500    -0.8270 o          1 8T9      -0.500000
     29 C23         -3.4000     1.5570     2.0260 c3         1 8T9      -0.103100
     30 C25          3.1620     1.7600     0.0160 c          1 8T9       0.611100
     31 O06          4.0450     2.1630     0.7590 o          1 8T9      -0.480000
     32 O07          2.9760     2.3160    -1.2250 os         1 8T9      -0.424100
     33 H1           0.7160    -0.4770     2.9670 hc         1 8T9       0.064200
     34 H2          -0.1090    -1.8850     2.4540 hc         1 8T9       0.064200
     35 H3           0.6280    -1.2930    -2.7900 hc         1 8T9       0.060700
     36 H4           0.1860    -2.8590    -2.0930 hc         1 8T9       0.060700
     37 H5          -0.2840    -1.3810    -1.2890 hc         1 8T9       0.060700
     38 H6          -1.9110     0.0580    -2.3270 ha         1 8T9       0.200000
     39 H8          -4.1670    -0.8950    -2.6750 ha         1 8T9       0.210000
     40 H10         -4.3120     2.2970    -1.2620 hc         1 8T9       0.051200
     41 H11         -5.2430     2.6110     0.2050 hc         1 8T9       0.051200
     42 H12         -3.6590     3.3450    -0.0010 hc         1 8T9       0.051200
     43 H13          3.5360     4.3110    -0.8850 h1         1 8T9       0.050367
     44 H14          4.8150     3.2720    -1.5670 h1         1 8T9       0.050367
     45 H15          3.4720     3.8210    -2.5910 h1         1 8T9       0.050367
     46 H17         -1.7140     2.4520    -1.3660 hc         1 8T9       0.051200
     47 H18         -1.3990     2.6520     0.3310 hc         1 8T9       0.051200
     48 H19          0.2400     0.9440    -1.6050 hc         1 8T9       0.068200
     49 H20          0.6330     2.5270    -0.9690 hc         1 8T9       0.068200
     50 H22         -0.1560     2.1010     2.1560 hc         1 8T9       0.046033
     51 H23          1.5050     1.6600     2.5200 hc         1 8T9       0.046033
     52 H24          1.1720     2.9550     1.3720 hc         1 8T9       0.046033
     53 H25          4.8730     0.2170     1.6460 ha         1 8T9       0.174000
     54 H26          4.4590    -1.2420     2.6170 ha         1 8T9       0.174000
     55 H27          3.2940    -3.1630     2.5420 hc         1 8T9       0.048367
     56 H28          2.5340    -2.0750     3.7220 hc         1 8T9       0.048367
     57 H29          1.6200    -3.4090     3.0240 hc         1 8T9       0.048367
     58 H30          2.5700    -3.6370    -1.6280 ho         1 8T9       0.455000
     59 H31         -2.9180    -1.9670     0.2290 hc         1 8T9       0.052700
     60 H32         -1.6800    -2.5010     1.2820 hc         1 8T9       0.052700
     61 H33         -2.9410    -1.4380     1.9150 hc         1 8T9       0.052700
     62 H34         -4.3620     1.8120     2.4860 hc         1 8T9       0.051200
     63 H35         -2.9710     0.7400     2.6130 hc         1 8T9       0.051200
     64 H36         -2.7440     2.4250     2.1550 hc         1 8T9       0.051200
     65 C24         -4.2320     2.4270    -0.1770 c3         1 8T9      -0.103100
@<TRIPOS>BOND
     1     1    14 1   
     2     1    17 1   
     3     1    33 1   
     4     1    34 1   
     5     2    17 1   
     6     2    20 2   
     7     2    21 1   
     8     3    15 1   
     9     3    21 1   
    10     3    22 2   
    11     4    21 1   
    12     4    35 1   
    13     4    36 1   
    14     4    37 1   
    15     5     7 2   
    16     5     9 1   
    17     5    38 1   
    18     6     7 1   
    19     6    27 1   
    20     6    28 2   
    21     7    39 1   
    22     8    32 1   
    23     8    43 1   
    24     8    44 1   
    25     8    45 1   
    26     9    10 1   
    27     9    11 1   
    28     9    26 1   
    29    10    14 2   
    30    10    25 1   
    31    11    12 1   
    32    11    46 1   
    33    11    47 1   
    34    12    13 1   
    35    12    48 1   
    36    12    49 1   
    37    13    14 1   
    38    13    15 1   
    39    13    18 1   
    40    15    16 1   
    41    15    30 1   
    42    16    17 1   
    43    16    19 2   
    44    17    23 1   
    45    18    50 1   
    46    18    51 1   
    47    18    52 1   
    48    19    53 1   
    49    19    54 1   
    50    21    24 1   
    51    23    55 1   
    52    23    56 1   
    53    23    57 1   
    54    24    58 1   
    55    25    59 1   
    56    25    60 1   
    57    25    61 1   
    58    26    27 1   
    59    26    29 1   
    60    26    65 1   
    61    29    62 1   
    62    29    63 1   
    63    29    64 1   
    64    30    31 2   
    65    30    32 1   
    66    40    65 1   
    67    41    65 1   
    68    42    65 1   
@<TRIPOS>SUBSTRUCTURE
     1 8T9         1 TEMP              0 ****  ****    0 ROOT
