@<TRIPOS>MOLECULE
8T9
   65    68     1     0     0
SMALL
abcg2


@<TRIPOS>ATOM
      1 C10          0.4570    -0.9590     2.0250 c6         1 8T9      -0.038200
      2 C13          1.5780    -2.3650     0.4020 c          1 8T9       0.567100
      3 C15          1.5320    -0.2740    -1.0930 c          1 8T9       0.623100
      4 C17          0.7780    -2.5050    -1.9890 c3         1 8T9      -0.113100
      5 C20         -2.4340     0.5850    -1.5010 c2         1 8T9      -0.148200
      6 C21         -4.6220    -0.4170    -1.1250 c          1 8T9       0.662300
      7 C22         -3.5210    -0.0010    -2.0000 ce         1 8T9      -0.314200
      8 C26          4.7370     1.9750    -1.8880 c3         1 8T9       0.152900
      9 C01         -2.2850     0.9080    -0.0430 c6         1 8T9      -0.004600
     10 C02         -1.4680    -0.2120     0.6170 c2         1 8T9      -0.074400
     11 C03         -1.5650     2.2520     0.1250 c6         1 8T9      -0.065400
     12 C04         -0.0860     2.1800    -0.1800 c6         1 8T9      -0.086400
     13 C05          0.6360     1.2180     0.7700 c6         1 8T9       0.035200
     14 C06         -0.2230    -0.0010     1.0840 c2         1 8T9      -0.136400
     15 C07          1.9470     0.6050     0.1030 c6         1 8T9      -0.148800
     16 C08          2.6690    -0.2470     1.1310 c2         1 8T9      -0.093400
     17 C09          1.8600    -1.4450     1.5770 c6         1 8T9      -0.096800
     18 C11          0.9670     1.9790     2.0640 c3         1 8T9      -0.087100
     19 C12          3.8480     0.0680     1.6540 c2         1 8T9      -0.280000
     20 O01          1.3010    -3.5280     0.5630 o          1 8T9      -0.509100
     21 C14          1.7000    -1.7990    -1.0140 c6         1 8T9       0.002000
     22 O02          1.1560     0.2200    -2.1220 o          1 8T9      -0.496100
     23 C16          2.4950    -2.2250     2.7200 c3         1 8T9      -0.078100
     24 O03          3.0720    -1.9630    -1.3370 oh         1 8T9      -0.633000
     25 C18         -2.1110    -1.5740     0.6980 c3         1 8T9      -0.068900
     26 C19         -3.7150     1.0510     0.5730 c6         1 8T9       0.218000
     27 O04         -4.5690    -0.0420     0.1500 os         1 8T9      -0.451100
     28 O05         -5.5320    -1.1240    -1.4900 o          1 8T9      -0.500000
     29 C23         -3.7180     0.9940     2.0930 c3         1 8T9      -0.103100
     30 C25          2.8870     1.6720    -0.4620 c          1 8T9       0.611100
     31 O06          2.8730     2.8440    -0.1940 o          1 8T9      -0.480000
     32 O07          3.7640     1.1220    -1.2830 os         1 8T9      -0.424100
     33 H1           0.5870    -0.4440     2.9820 hc         1 8T9       0.064200
     34 H2          -0.1560    -1.8270     2.2590 hc         1 8T9       0.064200
     35 H3           0.9670    -2.1720    -3.0070 hc         1 8T9       0.060700
     36 H4           0.9350    -3.5820    -1.9460 hc         1 8T9       0.060700
     37 H5          -0.2700    -2.3140    -1.7550 hc         1 8T9       0.060700
     38 H6          -1.6050     0.8160    -2.1590 ha         1 8T9       0.200000
     39 H8          -3.6090    -0.2450    -3.0500 ha         1 8T9       0.210000
     40 H10         -4.3740     2.4960    -0.9500 hc         1 8T9       0.051200
     41 H11         -5.4570     2.3000     0.4280 hc         1 8T9       0.051200
     42 H12         -3.9700     3.2150     0.6060 hc         1 8T9       0.051200
     43 H13          4.2650     2.7230    -2.5240 h1         1 8T9       0.050367
     44 H14          5.3490     2.4750    -1.1380 h1         1 8T9       0.050367
     45 H15          5.3630     1.3270    -2.4920 h1         1 8T9       0.050367
     46 H17         -2.0180     3.0000    -0.5260 hc         1 8T9       0.051200
     47 H18         -1.7090     2.6080     1.1480 hc         1 8T9       0.051200
     48 H19          0.0570     1.9060    -1.2230 hc         1 8T9       0.068200
     49 H20          0.3350     3.1790    -0.0740 hc         1 8T9       0.068200
     50 H22          0.0360     2.2800     2.5480 hc         1 8T9       0.046033
     51 H23          1.5340     1.3970     2.7860 hc         1 8T9       0.046033
     52 H24          1.5340     2.8810     1.8490 hc         1 8T9       0.046033
     53 H25          4.4090     0.9470     1.3650 ha         1 8T9       0.174000
     54 H26          4.3160    -0.5410     2.4140 ha         1 8T9       0.174000
     55 H27          3.4590    -2.6500     2.4390 hc         1 8T9       0.048367
     56 H28          2.6450    -1.5740     3.5820 hc         1 8T9       0.048367
     57 H29          1.8490    -3.0420     3.0350 hc         1 8T9       0.048367
     58 H30          3.2390    -2.9020    -1.4870 ho         1 8T9       0.455000
     59 H31         -2.5730    -1.8360    -0.2530 hc         1 8T9       0.052700
     60 H32         -1.3830    -2.3580     0.8900 hc         1 8T9       0.052700
     61 H33         -2.8830    -1.6600     1.4630 hc         1 8T9       0.052700
     62 H34         -4.7280     1.1540     2.4700 hc         1 8T9       0.051200
     63 H35         -3.3570     0.0470     2.4880 hc         1 8T9       0.051200
     64 H36         -3.0920     1.7850     2.5030 hc         1 8T9       0.051200
     65 C24         -4.4100     2.3420     0.1280 c3         1 8T9      -0.103100
@<TRIPOS>BOND
     1     1    14 1   
     2     1    17 1   
     3     1    33 1   
     4     1    34 1   
     5     2    17 1   
     6     2    20 2   
     7     2    21 1   
     8     3    15 1   
     9     3    21 1   
    10     3    22 2   
    11     4    21 1   
    12     4    35 1   
    13     4    36 1   
    14     4    37 1   
    15     5     7 2   
    16     5     9 1   
    17     5    38 1   
    18     6     7 1   
    19     6    27 1   
    20     6    28 2   
    21     7    39 1   
    22     8    32 1   
    23     8    43 1   
    24     8    44 1   
    25     8    45 1   
    26     9    10 1   
    27     9    11 1   
    28     9    26 1   
    29    10    14 2   
    30    10    25 1   
    31    11    12 1   
    32    11    46 1   
    33    11    47 1   
    34    12    13 1   
    35    12    48 1   
    36    12    49 1   
    37    13    14 1   
    38    13    15 1   
    39    13    18 1   
    40    15    16 1   
    41    15    30 1   
    42    16    17 1   
    43    16    19 2   
    44    17    23 1   
    45    18    50 1   
    46    18    51 1   
    47    18    52 1   
    48    19    53 1   
    49    19    54 1   
    50    21    24 1   
    51    23    55 1   
    52    23    56 1   
    53    23    57 1   
    54    24    58 1   
    55    25    59 1   
    56    25    60 1   
    57    25    61 1   
    58    26    27 1   
    59    26    29 1   
    60    26    65 1   
    61    29    62 1   
    62    29    63 1   
    63    29    64 1   
    64    30    31 2   
    65    30    32 1   
    66    40    65 1   
    67    41    65 1   
    68    42    65 1   
@<TRIPOS>SUBSTRUCTURE
     1 8T9         1 TEMP              0 ****  ****    0 ROOT
