@<TRIPOS>MOLECULE
8TA
   26    28     1     0     0
SMALL
No Charge or Current Charge


@<TRIPOS>ATOM
      1 N1          -1.4170    -0.9890     0.8050 nb         1 8TA      -0.669000
      2 N3           1.7840     1.8440     0.3360 na         1 8TA      -0.013200
      3 C4          -1.4850     0.2110     0.1780 ca         1 8TA       0.444500
      4 C5          -2.6850     0.6720    -0.4040 ca         1 8TA      -0.157000
      5 C6          -0.3040     1.0830     0.1940 cc         1 8TA      -0.263500
      6 C7          -0.2180     2.4670    -0.0450 cc         1 8TA       0.261900
      7 C8           0.9760     0.7230     0.5200 cd         1 8TA      -0.016200
      8 C10          3.2850    -1.8300     0.0040 cc         1 8TA      -0.172500
      9 C1          -3.8320    -0.1370    -0.3760 ca         1 8TA      -0.071000
     10 C2          -3.7400    -1.3860     0.2540 ca         1 8TA      -0.170000
     11 C3          -2.5200    -1.7690     0.8310 ca         1 8TA       0.345900
     12 N2           1.0090     2.9670     0.0270 nd         1 8TA      -0.505800
     13 N4           1.5490    -0.5420     0.3200 na         1 8TA       0.122200
     14 C9           2.8420    -0.7940     0.7850 cd         1 8TA      -0.170500
     15 C11          2.3090    -2.1260    -0.9780 cc         1 8TA      -0.172500
     16 C12          1.2400    -1.2830    -0.8250 cd         1 8TA      -0.170500
     17 H2          -2.7260     1.6450    -0.8820 ha         1 8TA       0.123000
     18 H3          -1.0290     3.1390    -0.2930 h4         1 8TA       0.042100
     19 H4           4.2490    -2.3260     0.0830 ha         1 8TA       0.134500
     20 H5          -4.7640     0.1960    -0.8280 ha         1 8TA       0.119000
     21 H6          -4.5990    -2.0500     0.3040 ha         1 8TA       0.124000
     22 H7          -2.4220    -2.7300     1.3350 h4         1 8TA       0.020100
     23 H8           3.3080    -0.2600     1.6050 h4         1 8TA       0.149500
     24 H9           2.4260    -2.8770    -1.7560 ha         1 8TA       0.134500
     25 H10          0.3380    -1.1540    -1.4100 h4         1 8TA       0.149500
     26 H1           2.8000     1.8790     0.3830 hn         1 8TA       0.382000
@<TRIPOS>BOND
     1     1     3 ar  
     2     1    11 ar  
     3     2     7 1   
     4     2    12 1   
     5     2    26 1   
     6     3     4 ar  
     7     3     5 1   
     8     4     9 ar  
     9     4    17 1   
    10     5     6 1   
    11     5     7 2   
    12     6    12 2   
    13     6    18 1   
    14     7    13 1   
    15     8    14 2   
    16     8    15 1   
    17     8    19 1   
    18     9    10 ar  
    19     9    20 1   
    20    10    11 ar  
    21    10    21 1   
    22    11    22 1   
    23    13    14 1   
    24    13    16 1   
    25    14    23 1   
    26    15    16 2   
    27    15    24 1   
    28    16    25 1   
@<TRIPOS>SUBSTRUCTURE
     1 8TA         1 TEMP              0 ****  ****    0 ROOT
