@<TRIPOS>MOLECULE
8TA
   26    28     1     0     0
SMALL
abcg2


@<TRIPOS>ATOM
      1 N1          -1.2920    -0.9740     0.5320 nb         1 8TA      -0.669000
      2 N3           1.7120     1.9880     0.0740 na         1 8TA      -0.013200
      3 C4          -1.4800     0.2780     0.1180 ca         1 8TA       0.444500
      4 C5          -2.7390     0.7520    -0.2570 ca         1 8TA      -0.157000
      5 C6          -0.3140     1.1580     0.0850 cc         1 8TA      -0.263500
      6 C7          -0.3010     2.5680     0.1600 cc         1 8TA       0.261900
      7 C8           1.0300     0.8320     0.0300 cd         1 8TA      -0.016200
      8 C10          3.1400    -2.0180     0.2830 cc         1 8TA      -0.172500
      9 C1          -3.8240    -0.1040    -0.1880 ca         1 8TA      -0.071000
     10 C2          -3.6250    -1.4090     0.2390 ca         1 8TA      -0.170000
     11 C3          -2.3360    -1.7890     0.5820 ca         1 8TA       0.345900
     12 N2           0.9220     3.0520     0.1650 nd         1 8TA      -0.505800
     13 N4           1.6940    -0.3810    -0.0820 na         1 8TA       0.122200
     14 C9           2.7450    -0.7820     0.7080 cd         1 8TA      -0.170500
     15 C11          2.2990    -2.3820    -0.8060 cc         1 8TA      -0.172500
     16 C12          1.4190    -1.3560    -1.0040 cd         1 8TA      -0.170500
     17 H2          -2.8650     1.7690    -0.6040 ha         1 8TA       0.123000
     18 H3          -1.1480     3.2330     0.2390 h4         1 8TA       0.042100
     19 H4           3.9400    -2.6030     0.7080 ha         1 8TA       0.134500
     20 H5          -4.8090     0.2420    -0.4710 ha         1 8TA       0.119000
     21 H6          -4.4420    -2.1140     0.3050 ha         1 8TA       0.124000
     22 H7          -2.1380    -2.8000     0.9200 h4         1 8TA       0.020100
     23 H8           3.1080    -0.1620     1.5110 h4         1 8TA       0.149500
     24 H9           2.3380    -3.2950    -1.3790 ha         1 8TA       0.134500
     25 H10          0.6280    -1.2330    -1.7240 h4         1 8TA       0.149500
     26 H1           2.7140     2.1030     0.0220 hn         1 8TA       0.382000
@<TRIPOS>BOND
     1     1     3 ar  
     2     1    11 ar  
     3     2     7 1   
     4     2    12 1   
     5     2    26 1   
     6     3     4 ar  
     7     3     5 1   
     8     4     9 ar  
     9     4    17 1   
    10     5     6 1   
    11     5     7 2   
    12     6    12 2   
    13     6    18 1   
    14     7    13 1   
    15     8    14 2   
    16     8    15 1   
    17     8    19 1   
    18     9    10 ar  
    19     9    20 1   
    20    10    11 ar  
    21    10    21 1   
    22    11    22 1   
    23    13    14 1   
    24    13    16 1   
    25    14    23 1   
    26    15    16 2   
    27    15    24 1   
    28    16    25 1   
@<TRIPOS>SUBSTRUCTURE
     1 8TA         1 TEMP              0 ****  ****    0 ROOT
