@<TRIPOS>MOLECULE
8TB
   90    96     1     0     0
SMALL
No Charge or Current Charge


@<TRIPOS>ATOM
      1 C11          9.4310    20.7990    19.4220 c          1 8TB       0.599100
      2 C12          8.6220    19.4830    19.1920 c3         1 8TB       0.038700
      3 C13          9.0060    18.8190    17.8390 c3         1 8TB      -0.046100
      4 C15          8.4880    16.3100    18.1000 ca         1 8TB       0.144000
      5 C17          6.3320    16.5300    16.3090 ca         1 8TB      -0.112000
      6 C19          7.7110    15.1820    17.7870 ca         1 8TB      -0.098000
      7 C20         14.2410    24.1580    16.8540 c          1 8TB       0.611100
      8 C21         15.8310    24.7880    14.9800 c5         1 8TB       0.026700
      9 C22         13.6190    25.8810    15.0640 c5         1 8TB       0.108000
     10 C23         14.2530    25.9970    13.6540 c5         1 8TB      -0.093400
     11 C24         12.6940    26.0060    19.7600 c5         1 8TB      -0.088400
     12 C25         17.1550    24.9530    15.7880 c          1 8TB       0.576000
     13 C10         13.0690    24.7440    17.7200 c5         1 8TB       0.034700
     14 C14          8.1910    17.5650    17.5160 ca         1 8TB      -0.059300
     15 C16          7.1070    17.6610    16.6180 ca         1 8TB      -0.100000
     16 C18          6.6330    15.2900    16.8930 ca         1 8TB      -0.103000
     17 C2          19.6650    24.7450    15.5810 c5         1 8TB      -0.027300
     18 C26         11.0560    22.8940    20.9820 c2         1 8TB      -0.194200
     19 C27         12.7530    24.5120    20.1620 c5         1 8TB       0.143900
     20 C28         11.5610    24.1400    21.0390 c2         1 8TB      -0.214200
     21 C29         12.9250    19.8300    20.1480 c5         1 8TB      -0.093400
     22 C3          20.4000    23.6750    14.7260 c5         1 8TB      -0.066400
     23 C30         11.4310    19.4640    20.3060 c5         1 8TB       0.106000
     24 C31         12.0520    22.5920    18.6290 c          1 8TB       0.577000
     25 C34         12.9460    21.2870    20.6650 c5         1 8TB      -0.073400
     26 C35         11.6720    21.9040    19.9920 c5         1 8TB       0.078600
     27 C4          19.7720    23.8890    13.3260 c5         1 8TB      -0.081700
     28 C49         20.1100    22.7690    12.3160 c3         1 8TB      -0.080100
     29 C5          18.2530    24.0250    13.6700 c5         1 8TB       0.160900
     30 C6          17.6170    24.8900    12.5660 c2         1 8TB      -0.201200
     31 C7          16.5480    25.7080    12.6880 c2         1 8TB      -0.201200
     32 C8          15.7670    25.9650    13.9760 c5         1 8TB      -0.039500
     33 C9          13.5810    26.0080    18.4880 c5         1 8TB      -0.084400
     34 N1          18.2930    24.7040    14.9900 n          1 8TB      -0.368800
     35 N2          14.5800    24.9930    15.7610 n          1 8TB      -0.391800
     36 N3          12.6180    23.8720    18.8380 n          1 8TB      -0.380800
     37 N4           7.1660    19.7610    19.2440 ns         1 8TB      -0.498900
     38 N5          10.7810    20.7130    19.8500 n          1 8TB      -0.387800
     39 O3          11.8690    22.1360    17.5040 o          1 8TB      -0.571000
     40 O4           8.9170    21.8910    19.1960 o          1 8TB      -0.619100
     41 H12          8.8730    18.8000    20.0130 h1         1 8TB       0.097700
     42 H13         10.0760    18.5890    17.8170 hc         1 8TB       0.075200
     43 H2A          8.8650    19.5620    17.0440 hc         1 8TB       0.075200
     44 H17          5.4970    16.6160    15.6170 ha         1 8TB       0.112000
     45 H19          7.9450    14.2220    18.2400 ha         1 8TB       0.127000
     46 H21         15.8050    23.8090    14.4860 h1         1 8TB       0.066700
     47 H96         13.5660    26.8600    15.5570 h1         1 8TB       0.044200
     48 H97         12.6090    25.4560    15.0090 h1         1 8TB       0.044200
     49 H23         13.9450    26.9100    13.1330 hc         1 8TB       0.048200
     50 H95         13.9600    25.1460    13.0260 hc         1 8TB       0.048200
     51 H24         13.0750    26.6680    20.5460 hc         1 8TB       0.054200
     52 H4A         11.6700    26.3240    19.5270 hc         1 8TB       0.054200
     53 H10         12.2120    24.9810    17.0790 h1         1 8TB       0.071700
     54 H16          6.8590    18.6160    16.1610 ha         1 8TB       0.114000
     55 H18          6.0330    14.4140    16.6540 ha         1 8TB       0.113000
     56 H22         19.6590    24.4480    16.6380 h1         1 8TB       0.070700
     57 H26         10.2150    22.6100    21.6170 ha         1 8TB       0.185000
     58 H27         13.7130    24.2550    20.6300 h1         1 8TB       0.076700
     59 H28         11.1360    24.8700    21.7310 ha         1 8TB       0.186000
     60 H29         13.5820    19.1650    20.7220 hc         1 8TB       0.068200
     61 H37         13.2370    19.7740    19.0980 hc         1 8TB       0.068200
     62 H31         20.1890    22.6670    15.1020 hc         1 8TB       0.040700
     63 H32         21.4890    23.8000    14.7290 hc         1 8TB       0.040700
     64 H30         11.1730    19.2540    21.3530 h1         1 8TB       0.051700
     65 H36         11.1760    18.5880    19.7030 h1         1 8TB       0.051700
     66 H34          4.0580    18.7470    20.1240 hc         1 8TB       0.059033
     67 H35          4.7150    20.4370    20.0800 hc         1 8TB       0.059033
     68 H33          4.5630    19.5950    18.6030 hc         1 8TB       0.059033
     69 H39         12.8720    21.3030    21.7590 hc         1 8TB       0.066200
     70 H38         13.8720    21.8100    20.4010 hc         1 8TB       0.066200
     71 H41         20.1550    24.8230    12.8970 hc         1 8TB       0.081700
     72 H94         21.1930    22.6990    12.1560 hc         1 8TB       0.023700
     73 H49         19.7600    21.7930    12.6730 hc         1 8TB       0.023700
     74 H93         19.6420    22.9570    11.3420 hc         1 8TB       0.023700
     75 H5          17.7760    23.0390    13.7550 h1         1 8TB       0.036700
     76 H6          18.0580    24.8240    11.5700 ha         1 8TB       0.163000
     77 H7          16.2270    26.2430    11.7920 ha         1 8TB       0.160000
     78 H8          16.0790    26.9100    14.4390 hc         1 8TB       0.099700
     79 H91         14.6410    25.9120    18.7560 hc         1 8TB       0.072200
     80 H92         13.4780    26.9300    17.9060 hc         1 8TB       0.072200
     81 H42          6.8330    20.6310    18.8440 hn         1 8TB       0.330500
     82 C32          6.2180    18.9300    19.7950 c          1 8TB       0.599100
     83 O7          17.2450    25.3050    16.9610 o          1 8TB      -0.572000
     84 C1          20.4120    26.1230    15.4950 c          1 8TB       0.715000
     85 O1          21.3890    26.2980    16.2100 o          1 8TB      -0.724500
     86 O2          19.9720    27.0210    14.7880 o          1 8TB      -0.724500
     87 Cl           9.8300    16.1150    19.2290 cl         1 8TB      -0.221000
     88 O6          14.8840    23.1430    17.1070 o          1 8TB      -0.595100
     89 C33          4.7840    19.4260    19.6640 c3         1 8TB      -0.174100
     90 O5           6.5020    17.8820    20.3550 o          1 8TB      -0.616100
@<TRIPOS>BOND
     1     1     2 1   
     2     1    38 1   
     3     1    40 2   
     4     2     3 1   
     5     2    37 1   
     6     2    41 1   
     7     3    14 1   
     8     3    42 1   
     9     3    43 1   
    10     4     6 ar  
    11     4    14 ar  
    12     4    87 1   
    13     5    15 ar  
    14     5    16 ar  
    15     5    44 1   
    16     6    16 ar  
    17     6    45 1   
    18     7    13 1   
    19     7    35 1   
    20     7    88 2   
    21     8    12 1   
    22     8    32 1   
    23     8    35 1   
    24     8    46 1   
    25     9    10 1   
    26     9    35 1   
    27     9    47 1   
    28     9    48 1   
    29    10    32 1   
    30    10    49 1   
    31    10    50 1   
    32    11    19 1   
    33    11    33 1   
    34    11    51 1   
    35    11    52 1   
    36    12    34 1   
    37    12    83 2   
    38    13    33 1   
    39    13    36 1   
    40    13    53 1   
    41    14    15 ar  
    42    15    54 1   
    43    16    55 1   
    44    17    22 1   
    45    17    34 1   
    46    17    56 1   
    47    17    84 1   
    48    18    20 2   
    49    18    26 1   
    50    18    57 1   
    51    19    20 1   
    52    19    36 1   
    53    19    58 1   
    54    20    59 1   
    55    21    23 1   
    56    21    25 1   
    57    21    60 1   
    58    21    61 1   
    59    22    27 1   
    60    22    62 1   
    61    22    63 1   
    62    23    38 1   
    63    23    64 1   
    64    23    65 1   
    65    24    26 1   
    66    24    36 1   
    67    24    39 2   
    68    25    26 1   
    69    25    69 1   
    70    25    70 1   
    71    26    38 1   
    72    27    28 1   
    73    27    29 1   
    74    27    71 1   
    75    28    72 1   
    76    28    73 1   
    77    28    74 1   
    78    29    30 1   
    79    29    34 1   
    80    29    75 1   
    81    30    31 2   
    82    30    76 1   
    83    31    32 1   
    84    31    77 1   
    85    32    78 1   
    86    33    79 1   
    87    33    80 1   
    88    37    81 1   
    89    37    82 1   
    90    66    89 1   
    91    67    89 1   
    92    68    89 1   
    93    82    89 1   
    94    82    90 2   
    95    84    85 1   
    96    84    86 1   
@<TRIPOS>SUBSTRUCTURE
     1 8TB         1 TEMP              0 ****  ****    0 ROOT
