@<TRIPOS>MOLECULE
8TB
   90    96     1     0     0
SMALL
abcg2


@<TRIPOS>ATOM
      1 C11          9.8760    20.8470    19.4010 c          1 8TB       0.599100
      2 C12          9.0080    19.6520    19.0020 c3         1 8TB       0.038700
      3 C13          9.0850    19.4950    17.4610 c3         1 8TB      -0.046100
      4 C15          8.5550    17.0580    16.9380 ca         1 8TB       0.144000
      5 C17          6.0130    17.7280    16.0930 ca         1 8TB      -0.112000
      6 C19          7.6910    16.0580    16.5130 ca         1 8TB      -0.098000
      7 C20         14.2470    24.2990    17.1190 c          1 8TB       0.611100
      8 C21         15.6360    24.5300    15.1420 c5         1 8TB       0.026700
      9 C22         13.3590    25.3430    14.9910 c5         1 8TB       0.108000
     10 C23         13.8580    24.9790    13.5950 c5         1 8TB      -0.093400
     11 C24         12.2610    25.9170    19.7730 c5         1 8TB      -0.088400
     12 C25         16.8690    25.1990    15.7240 c          1 8TB       0.576000
     13 C10         12.9360    24.6400    17.8240 c5         1 8TB       0.034700
     14 C14          8.1870    18.4040    16.9540 ca         1 8TB      -0.059300
     15 C16          6.8970    18.7120    16.5170 ca         1 8TB      -0.100000
     16 C18          6.4120    16.3960    16.0910 ca         1 8TB      -0.103000
     17 C2          19.3030    25.3390    15.6030 c5         1 8TB      -0.027300
     18 C26         11.5620    22.5890    21.2070 c2         1 8TB      -0.194200
     19 C27         12.7160    24.5300    20.2350 c5         1 8TB       0.143900
     20 C28         11.8950    23.8680    21.2880 c2         1 8TB      -0.214200
     21 C29         13.2820    19.6310    19.7700 c5         1 8TB      -0.093400
     22 C3          20.2900    24.2440    15.1850 c5         1 8TB      -0.066400
     23 C30         11.7980    19.2820    19.8040 c5         1 8TB       0.106000
     24 C31         12.3380    22.5000    18.8090 c          1 8TB       0.577000
     25 C34         13.3450    20.9520    20.5290 c5         1 8TB      -0.073400
     26 C35         12.0570    21.7040    20.0970 c5         1 8TB       0.078600
     27 C4          19.6900    23.6950    13.8910 c5         1 8TB      -0.081700
     28 C49         20.2160    22.3300    13.4770 c3         1 8TB      -0.080100
     29 C5          18.1690    23.7090    14.1660 c5         1 8TB       0.160900
     30 C6          17.3820    23.8580    12.8860 c2         1 8TB      -0.201200
     31 C7          16.2130    24.4600    12.6860 c2         1 8TB      -0.201200
     32 C8          15.3770    25.1120    13.7410 c5         1 8TB      -0.039500
     33 C9          12.9690    26.0660    18.4240 c5         1 8TB      -0.084400
     34 N1          18.0190    24.7810    15.1760 n          1 8TB      -0.368800
     35 N2          14.3990    24.7770    15.8700 n          1 8TB      -0.391800
     36 N3          12.7050    23.7770    18.9760 n          1 8TB      -0.380800
     37 N4           7.6550    19.9090    19.4430 ns         1 8TB      -0.498900
     38 N5          11.1350    20.5990    19.7910 n          1 8TB      -0.387800
     39 O3          12.2640    21.9760    17.6970 o          1 8TB      -0.571000
     40 O4           9.4110    21.9860    19.3190 o          1 8TB      -0.619100
     41 H12          9.3330    18.7370    19.4850 h1         1 8TB       0.097700
     42 H13         10.1210    19.3140    17.1760 hc         1 8TB       0.075200
     43 H2A          8.7830    20.4440    17.0160 hc         1 8TB       0.075200
     44 H17          5.0190    18.0010    15.7650 ha         1 8TB       0.112000
     45 H19          8.0180    15.0270    16.5170 ha         1 8TB       0.127000
     46 H21         15.8030    23.4530    15.0770 h1         1 8TB       0.066700
     47 H96         13.3020    26.4270    15.1200 h1         1 8TB       0.044200
     48 H97         12.3850    24.9150    15.2090 h1         1 8TB       0.044200
     49 H23         13.4510    25.6320    12.8240 hc         1 8TB       0.048200
     50 H95         13.5900    23.9470    13.3570 hc         1 8TB       0.048200
     51 H24         12.5310    26.6960    20.4840 hc         1 8TB       0.054200
     52 H4A         11.1760    25.9180    19.6460 hc         1 8TB       0.054200
     53 H10         12.0990    24.5250    17.1380 h1         1 8TB       0.071700
     54 H16          6.5880    19.7500    16.5200 ha         1 8TB       0.114000
     55 H18          5.7340    15.6190    15.7620 ha         1 8TB       0.113000
     56 H22         19.2880    25.4830    16.6820 h1         1 8TB       0.070700
     57 H26         10.9800    22.1010    21.9800 ha         1 8TB       0.185000
     58 H27         13.7540    24.6090    20.5870 h1         1 8TB       0.076700
     59 H28         11.6030    24.4750    22.1360 ha         1 8TB       0.186000
     60 H29         13.8930    18.8540    20.2270 hc         1 8TB       0.068200
     61 H37         13.6080    19.7680    18.7390 hc         1 8TB       0.068200
     62 H31         20.3150    23.4570    15.9440 hc         1 8TB       0.040700
     63 H32         21.3000    24.6280    15.0550 hc         1 8TB       0.040700
     64 H30         11.5360    18.7430    20.7180 h1         1 8TB       0.051700
     65 H36         11.4980    18.6830    18.9490 h1         1 8TB       0.051700
     66 H34          5.2180    19.1250    21.3390 hc         1 8TB       0.059033
     67 H35          5.3110    20.4930    20.2030 hc         1 8TB       0.059033
     68 H33          4.7590    18.8990    19.6510 hc         1 8TB       0.059033
     69 H39         13.2940    20.7770    21.6060 hc         1 8TB       0.066200
     70 H38         14.2350    21.5440    20.3250 hc         1 8TB       0.066200
     71 H41         19.8850    24.4130    13.0900 hc         1 8TB       0.081700
     72 H94         21.2900    22.3750    13.2870 hc         1 8TB       0.023700
     73 H49         20.0400    21.5940    14.2670 hc         1 8TB       0.023700
     74 H93         19.7310    21.9720    12.5670 hc         1 8TB       0.023700
     75 H5          17.9040    22.7510    14.6330 h1         1 8TB       0.036700
     76 H6          17.8660    23.3980    12.0300 ha         1 8TB       0.163000
     77 H7          15.8180    24.4980    11.6750 ha         1 8TB       0.160000
     78 H8          15.6050    26.1850    13.7710 hc         1 8TB       0.099700
     79 H91         14.0020    26.3810    18.5780 hc         1 8TB       0.072200
     80 H92         12.4910    26.7850    17.7620 hc         1 8TB       0.072200
     81 H42          7.3040    20.8440    19.3040 hn         1 8TB       0.330500
     82 C32          6.8540    18.9680    19.9850 c          1 8TB       0.599100
     83 O7          16.8050    26.1010    16.5630 o          1 8TB      -0.572000
     84 C1          19.6530    26.7100    14.9600 c          1 8TB       0.715000
     85 O1          20.6200    27.3040    15.5000 o          1 8TB      -0.724500
     86 O2          18.9870    27.1000    13.9730 o          1 8TB      -0.724500
     87 CL          10.1540    16.5780    17.4850 cl         1 8TB      -0.221000
     88 O6          15.1380    23.6730    17.6920 o          1 8TB      -0.595100
     89 C33          5.4520    19.4190    20.3160 c3         1 8TB      -0.174100
     90 O5           7.2250    17.8110    20.1910 o          1 8TB      -0.616100
@<TRIPOS>BOND
     1     1     2 1   
     2     1    38 1   
     3     1    40 2   
     4     2     3 1   
     5     2    37 1   
     6     2    41 1   
     7     3    14 1   
     8     3    42 1   
     9     3    43 1   
    10     4     6 ar  
    11     4    14 ar  
    12     4    87 1   
    13     5    15 ar  
    14     5    16 ar  
    15     5    44 1   
    16     6    16 ar  
    17     6    45 1   
    18     7    13 1   
    19     7    35 1   
    20     7    88 2   
    21     8    12 1   
    22     8    32 1   
    23     8    35 1   
    24     8    46 1   
    25     9    10 1   
    26     9    35 1   
    27     9    47 1   
    28     9    48 1   
    29    10    32 1   
    30    10    49 1   
    31    10    50 1   
    32    11    19 1   
    33    11    33 1   
    34    11    51 1   
    35    11    52 1   
    36    12    34 1   
    37    12    83 2   
    38    13    33 1   
    39    13    36 1   
    40    13    53 1   
    41    14    15 ar  
    42    15    54 1   
    43    16    55 1   
    44    17    22 1   
    45    17    34 1   
    46    17    56 1   
    47    17    84 1   
    48    18    20 2   
    49    18    26 1   
    50    18    57 1   
    51    19    20 1   
    52    19    36 1   
    53    19    58 1   
    54    20    59 1   
    55    21    23 1   
    56    21    25 1   
    57    21    60 1   
    58    21    61 1   
    59    22    27 1   
    60    22    62 1   
    61    22    63 1   
    62    23    38 1   
    63    23    64 1   
    64    23    65 1   
    65    24    26 1   
    66    24    36 1   
    67    24    39 2   
    68    25    26 1   
    69    25    69 1   
    70    25    70 1   
    71    26    38 1   
    72    27    28 1   
    73    27    29 1   
    74    27    71 1   
    75    28    72 1   
    76    28    73 1   
    77    28    74 1   
    78    29    30 1   
    79    29    34 1   
    80    29    75 1   
    81    30    31 2   
    82    30    76 1   
    83    31    32 1   
    84    31    77 1   
    85    32    78 1   
    86    33    79 1   
    87    33    80 1   
    88    37    81 1   
    89    37    82 1   
    90    66    89 1   
    91    67    89 1   
    92    68    89 1   
    93    82    89 1   
    94    82    90 2   
    95    84    85 1   
    96    84    86 1   
@<TRIPOS>SUBSTRUCTURE
     1 8TB         1 TEMP              0 ****  ****    0 ROOT
