@<TRIPOS>MOLECULE
8TC
   70    73     1     0     0
SMALL
abcg2


@<TRIPOS>ATOM
      1 C10         -0.4380    -0.3400     0.6090 c6         1 8TC      -0.053700
      2 C13          1.7100    -1.6550     1.1620 c6         1 8TC      -0.101800
      3 C15         -4.3030     1.7100    -1.7090 c3         1 8TC      -0.080600
      4 C17         -2.3700     0.0810     2.2620 c3         1 8TC      -0.081100
      5 C20          1.7030    -2.2850    -0.2270 c          1 8TC       0.556100
      6 C21          2.2620    -1.4540    -1.3810 c6         1 8TC      -0.003000
      7 C22          1.8070     0.0080    -1.2410 c          1 8TC       0.613100
      8 C24          1.9010    -2.0230    -2.7370 c3         1 8TC      -0.108100
      9 C26          4.7830     2.5570    -0.9570 c3         1 8TC       0.152900
     10 C01         -4.0940    -1.5870     0.2770 c6         1 8TC      -0.111400
     11 C02         -4.5050    -0.5830    -0.7860 c6         1 8TC       0.176300
     12 C03         -4.0350     0.8460    -0.4670 c6         1 8TC      -0.023000
     13 C04         -2.5000     0.7800    -0.2310 c6         1 8TC      -0.048700
     14 C05         -1.9860    -0.2480     0.8120 c6         1 8TC      -0.019000
     15 C06         -2.5840    -1.6250     0.4640 c6         1 8TC      -0.071400
     16 C07         -1.8400     2.1350    -0.0010 c6         1 8TC      -0.068400
     17 C08         -0.3340     2.0550    -0.2190 c6         1 8TC      -0.085400
     18 C09          0.3530     1.0010     0.6670 c6         1 8TC       0.007000
     19 C11          1.8250     0.6560     0.1610 c6         1 8TC      -0.153800
     20 C12          2.4240    -0.3210     1.1600 c2         1 8TC      -0.085400
     21 C14          0.2190    -1.4050     1.4910 c6         1 8TC      -0.071400
     22 C16         -4.8200     1.4580     0.6990 c3         1 8TC      -0.080600
     23 O01         -5.9050    -0.5770    -0.9720 oh         1 8TC      -0.658000
     24 C18          0.4330     1.5560     2.0990 c3         1 8TC      -0.091100
     25 C19          3.3780     0.0040     2.0220 c2         1 8TC      -0.286000
     26 O02          1.2940    -3.4050    -0.4070 o          1 8TC      -0.504100
     27 O03          1.4920     0.6380    -2.2160 o          1 8TC      -0.489100
     28 C23          2.2790    -2.6550     2.1650 c3         1 8TC      -0.078100
     29 O04          3.6590    -1.4000    -1.1680 oh         1 8TC      -0.624000
     30 C25          2.7320     1.8820    -0.0110 c          1 8TC       0.610100
     31 O05          2.5370     2.9940     0.4040 o          1 8TC      -0.477000
     32 O06          3.8110     1.5450    -0.6940 os         1 8TC      -0.427100
     33 H1          -0.3650    -0.6930    -0.4340 hc         1 8TC       0.036700
     34 H2          -5.3510     1.6470    -2.0030 hc         1 8TC       0.036533
     35 H3          -4.0840     2.7640    -1.5320 hc         1 8TC       0.036533
     36 H4          -3.6990     1.3850    -2.5590 hc         1 8TC       0.036533
     37 H5          -3.3810    -0.2510     2.4880 hc         1 8TC       0.035033
     38 H6          -1.7200    -0.4290     2.9720 hc         1 8TC       0.035033
     39 H7          -2.3310     1.1430     2.4960 hc         1 8TC       0.035033
     40 H8           0.8240    -2.0320    -2.8990 hc         1 8TC       0.058033
     41 H9           2.3590    -1.4380    -3.5320 hc         1 8TC       0.058033
     42 H10          2.2550    -3.0500    -2.8250 hc         1 8TC       0.058033
     43 H11          5.5680     2.0720    -1.5280 h1         1 8TC       0.049367
     44 H12          4.3590     3.3720    -1.5430 h1         1 8TC       0.049367
     45 H13          5.2010     2.9560    -0.0330 h1         1 8TC       0.049367
     46 H14         -4.5990    -1.3560     1.2190 hc         1 8TC       0.045200
     47 H15         -4.4390    -2.5850    -0.0140 hc         1 8TC       0.045200
     48 H16         -4.0020    -0.8740    -1.7250 h1         1 8TC       0.025700
     49 H17         -2.1020     0.4170    -1.1940 hc         1 8TC       0.042700
     50 H18         -2.3480    -2.3540     1.2440 hc         1 8TC       0.041700
     51 H19         -2.1210    -2.0000    -0.4570 hc         1 8TC       0.041700
     52 H20         -2.2300     2.8770    -0.6990 hc         1 8TC       0.045200
     53 H21         -2.0720     2.5250     0.9930 hc         1 8TC       0.045200
     54 H22         -0.1700     1.8390    -1.2740 hc         1 8TC       0.062200
     55 H23          0.1060     3.0340    -0.0280 hc         1 8TC       0.062200
     56 H24          0.1600    -1.1370     2.5470 hc         1 8TC       0.058700
     57 H25         -0.3050    -2.3560     1.3930 hc         1 8TC       0.058700
     58 H26         -4.8760     0.8130     1.5740 hc         1 8TC       0.036533
     59 H27         -4.3650     2.3980     1.0150 hc         1 8TC       0.036533
     60 H28         -5.8430     1.6810     0.3960 hc         1 8TC       0.036533
     61 H29         -6.1790    -1.4730    -1.1900 ho         1 8TC       0.440000
     62 H30          0.6310     0.7950     2.8510 hc         1 8TC       0.044033
     63 H31          1.2070     2.3120     2.1920 hc         1 8TC       0.044033
     64 H32         -0.5050     2.0350     2.3710 hc         1 8TC       0.044033
     65 H33          3.7520    -0.6950     2.7550 ha         1 8TC       0.172000
     66 H34          3.8330     0.9860     2.0510 ha         1 8TC       0.172000
     67 H35          3.3260    -2.8810     1.9630 hc         1 8TC       0.047367
     68 H36          2.2050    -2.2600     3.1790 hc         1 8TC       0.047367
     69 H37          1.7160    -3.5860     2.1330 hc         1 8TC       0.047367
     70 H38          4.0190    -2.2840    -1.3120 ho         1 8TC       0.450000
@<TRIPOS>BOND
     1     1    14 1   
     2     1    18 1   
     3     1    21 1   
     4     1    33 1   
     5     2     5 1   
     6     2    20 1   
     7     2    21 1   
     8     2    28 1   
     9     3    12 1   
    10     3    34 1   
    11     3    35 1   
    12     3    36 1   
    13     4    14 1   
    14     4    37 1   
    15     4    38 1   
    16     4    39 1   
    17     5     6 1   
    18     5    26 2   
    19     6     7 1   
    20     6     8 1   
    21     6    29 1   
    22     7    19 1   
    23     7    27 2   
    24     8    40 1   
    25     8    41 1   
    26     8    42 1   
    27     9    32 1   
    28     9    43 1   
    29     9    44 1   
    30     9    45 1   
    31    10    11 1   
    32    10    15 1   
    33    10    46 1   
    34    10    47 1   
    35    11    12 1   
    36    11    23 1   
    37    11    48 1   
    38    12    13 1   
    39    12    22 1   
    40    13    14 1   
    41    13    16 1   
    42    13    49 1   
    43    14    15 1   
    44    15    50 1   
    45    15    51 1   
    46    16    17 1   
    47    16    52 1   
    48    16    53 1   
    49    17    18 1   
    50    17    54 1   
    51    17    55 1   
    52    18    19 1   
    53    18    24 1   
    54    19    20 1   
    55    19    30 1   
    56    20    25 2   
    57    21    56 1   
    58    21    57 1   
    59    22    58 1   
    60    22    59 1   
    61    22    60 1   
    62    23    61 1   
    63    24    62 1   
    64    24    63 1   
    65    24    64 1   
    66    25    65 1   
    67    25    66 1   
    68    28    67 1   
    69    28    68 1   
    70    28    69 1   
    71    29    70 1   
    72    30    31 2   
    73    30    32 1   
@<TRIPOS>SUBSTRUCTURE
     1 8TC         1 TEMP              0 ****  ****    0 ROOT
