@<TRIPOS>MOLECULE
8TC
   70    73     1     0     0
SMALL
No Charge or Current Charge


@<TRIPOS>ATOM
      1 C10         -0.4820    -0.7060     0.5420 c6         1 8TC      -0.053700
      2 C13          1.8280    -1.7310     1.3840 c6         1 8TC      -0.101800
      3 C15         -4.1390     1.5690    -2.1420 c3         1 8TC      -0.080600
      4 C17         -2.3690     0.0990     2.1370 c3         1 8TC      -0.081100
      5 C20          2.2430    -2.5450     0.1250 c          1 8TC       0.556100
      6 C21          2.3130    -1.8200    -1.2490 c6         1 8TC      -0.003000
      7 C22          2.0320    -0.2720    -1.2400 c          1 8TC       0.613100
      8 C24          1.3470    -2.5470    -2.2500 c3         1 8TC      -0.108100
      9 C26          3.8180     3.9700    -0.0720 c3         1 8TC       0.152900
     10 C01         -4.3130    -1.5600     0.2440 c6         1 8TC      -0.111400
     11 C02         -4.6040    -0.6170    -0.9450 c6         1 8TC       0.176300
     12 C03         -3.9540     0.8100    -0.7770 c6         1 8TC      -0.023000
     13 C04         -2.3950     0.6410    -0.4690 c6         1 8TC      -0.048700
     14 C05         -2.0340    -0.4030     0.6870 c6         1 8TC      -0.019000
     15 C06         -2.7920    -1.7450     0.4310 c6         1 8TC      -0.071400
     16 C07         -1.6320     2.0470    -0.3260 c6         1 8TC      -0.068400
     17 C08         -0.0840     1.9900    -0.5440 c6         1 8TC      -0.085400
     18 C09          0.6640     1.1060     0.4970 c6         1 8TC       0.007000
     19 C11          2.0950     0.5680     0.0780 c6         1 8TC      -0.153800
     20 C12          2.5260    -0.3320     1.2810 c2         1 8TC      -0.085400
     21 C14          0.2590    -1.6280     1.5600 c6         1 8TC      -0.071400
     22 C16         -4.7280     1.6770     0.2820 c3         1 8TC      -0.080600
     23 O01         -6.0240    -0.5440    -1.1390 oh         1 8TC      -0.658000
     24 C18          0.6610     1.7810     1.9200 c3         1 8TC      -0.091100
     25 C19          3.4240     0.1170     2.1890 c2         1 8TC      -0.286000
     26 O02          2.7580    -3.6580     0.2130 o          1 8TC      -0.504100
     27 O03          1.9780     0.3100    -2.3210 o          1 8TC      -0.489100
     28 C23          2.3320    -2.5250     2.6470 c3         1 8TC      -0.078100
     29 O04          3.6530    -2.0300    -1.7950 oh         1 8TC      -0.624000
     30 C25          3.1600     1.6530    -0.2510 c          1 8TC       0.610100
     31 O05          4.2760     1.3500    -0.6550 o          1 8TC      -0.477000
     32 O06          2.8450     2.9310     0.1360 os         1 8TC      -0.427100
     33 H1          -0.3640    -1.1630    -0.4400 hc         1 8TC       0.036700
     34 H2          -5.1830     1.5560    -2.4780 hc         1 8TC       0.036533
     35 H3          -3.8610     2.6260    -2.0810 hc         1 8TC       0.036533
     36 H4          -3.5420     1.1130    -2.9410 hc         1 8TC       0.036533
     37 H5          -3.4380     0.1970     2.3220 hc         1 8TC       0.035033
     38 H6          -2.0210    -0.6080     2.8970 hc         1 8TC       0.035033
     39 H7          -1.9230     1.0650     2.3730 hc         1 8TC       0.035033
     40 H8           0.3000    -2.5160    -1.9370 hc         1 8TC       0.058033
     41 H9           1.4010    -2.1070    -3.2540 hc         1 8TC       0.058033
     42 H10          1.6090    -3.6070    -2.3550 hc         1 8TC       0.058033
     43 H11          3.4250     4.9340     0.2740 h1         1 8TC       0.049367
     44 H12          4.7410     3.7600     0.4850 h1         1 8TC       0.049367
     45 H13          4.0670     4.0660    -1.1370 h1         1 8TC       0.049367
     46 H14         -4.7820    -1.1910     1.1640 hc         1 8TC       0.045200
     47 H15         -4.7660    -2.5430     0.0510 hc         1 8TC       0.045200
     48 H16         -4.1530    -1.0790    -1.8360 h1         1 8TC       0.025700
     49 H17         -1.9920     0.1960    -1.3900 hc         1 8TC       0.042700
     50 H18         -2.6130    -2.4460     1.2580 hc         1 8TC       0.041700
     51 H19         -2.3940    -2.2350    -0.4680 hc         1 8TC       0.041700
     52 H20         -1.9830     2.8200    -1.0370 hc         1 8TC       0.045200
     53 H21         -1.8590     2.4910     0.6490 hc         1 8TC       0.045200
     54 H22          0.0760     1.6300    -1.5640 hc         1 8TC       0.062200
     55 H23          0.3200     3.0120    -0.5230 hc         1 8TC       0.062200
     56 H24          0.0610    -1.2560     2.5720 hc         1 8TC       0.058700
     57 H25         -0.1810    -2.6340     1.5240 hc         1 8TC       0.058700
     58 H26         -4.9440     1.1380     1.2060 hc         1 8TC       0.036533
     59 H27         -4.1890     2.5940     0.5440 hc         1 8TC       0.036533
     60 H28         -5.7040     1.9920    -0.1050 hc         1 8TC       0.036533
     61 H29         -6.3350    -1.4630    -1.2830 ho         1 8TC       0.440000
     62 H30          0.6470     1.0320     2.7180 hc         1 8TC       0.044033
     63 H31          1.5390     2.4070     2.1000 hc         1 8TC       0.044033
     64 H32         -0.2010     2.4330     2.0830 hc         1 8TC       0.044033
     65 H33          3.7490    -0.4570     3.0550 ha         1 8TC       0.172000
     66 H34          3.8800     1.1040     2.1280 ha         1 8TC       0.172000
     67 H35          3.4150    -2.6980     2.6200 hc         1 8TC       0.047367
     68 H36          2.1020    -1.9940     3.5800 hc         1 8TC       0.047367
     69 H37          1.8520    -3.5080     2.7220 hc         1 8TC       0.047367
     70 H38          3.9060    -2.9610    -1.5950 ho         1 8TC       0.450000
@<TRIPOS>BOND
     1     1    14 1   
     2     1    18 1   
     3     1    21 1   
     4     1    33 1   
     5     2     5 1   
     6     2    20 1   
     7     2    21 1   
     8     2    28 1   
     9     3    12 1   
    10     3    34 1   
    11     3    35 1   
    12     3    36 1   
    13     4    14 1   
    14     4    37 1   
    15     4    38 1   
    16     4    39 1   
    17     5     6 1   
    18     5    26 2   
    19     6     7 1   
    20     6     8 1   
    21     6    29 1   
    22     7    19 1   
    23     7    27 2   
    24     8    40 1   
    25     8    41 1   
    26     8    42 1   
    27     9    32 1   
    28     9    43 1   
    29     9    44 1   
    30     9    45 1   
    31    10    11 1   
    32    10    15 1   
    33    10    46 1   
    34    10    47 1   
    35    11    12 1   
    36    11    23 1   
    37    11    48 1   
    38    12    13 1   
    39    12    22 1   
    40    13    14 1   
    41    13    16 1   
    42    13    49 1   
    43    14    15 1   
    44    15    50 1   
    45    15    51 1   
    46    16    17 1   
    47    16    52 1   
    48    16    53 1   
    49    17    18 1   
    50    17    54 1   
    51    17    55 1   
    52    18    19 1   
    53    18    24 1   
    54    19    20 1   
    55    19    30 1   
    56    20    25 2   
    57    21    56 1   
    58    21    57 1   
    59    22    58 1   
    60    22    59 1   
    61    22    60 1   
    62    23    61 1   
    63    24    62 1   
    64    24    63 1   
    65    24    64 1   
    66    25    65 1   
    67    25    66 1   
    68    28    67 1   
    69    28    68 1   
    70    28    69 1   
    71    29    70 1   
    72    30    31 2   
    73    30    32 1   
@<TRIPOS>SUBSTRUCTURE
     1 8TC         1 TEMP              0 ****  ****    0 ROOT
