@<TRIPOS>MOLECULE
8TD
   24    25     1     0     0
SMALL
abcg2


@<TRIPOS>ATOM
      1 N1           1.4100    -0.9820    -0.0140 n          1 8TD      -0.289000
      2 N3          -3.8800     0.5870     0.1910 nv         1 8TD      -1.060000
      3 C4          -0.2250     0.5410     0.0320 ca         1 8TD       0.044600
      4 C5          -1.5100     1.0450     0.0680 ca         1 8TD      -0.179000
      5 C6          -2.5740     0.1310     0.0950 ca         1 8TD       0.285000
      6 C7          -2.3040    -1.2440     0.0840 ca         1 8TD      -0.177000
      7 C8          -1.0020    -1.7380     0.0510 ca         1 8TD      -0.066000
      8 C1           2.1040    -2.2410    -0.0420 c3         1 8TD       0.107300
      9 C2           2.0120     0.2490    -0.0350 c          1 8TD       0.596000
     10 N2           0.9940     1.1790    -0.0090 n          1 8TD      -0.294000
     11 C3           1.1870     2.6050    -0.0230 c3         1 8TD       0.105300
     12 C9           0.0350    -0.8300     0.0260 ca         1 8TD      -0.040400
     13 O1           3.2090     0.4830    -0.0710 o          1 8TD      -0.571000
     14 H1          -4.0350     1.5120    -0.1770 hn         1 8TD       0.441000
     15 H2          -4.5740    -0.0550    -0.1590 hn         1 8TD       0.441000
     16 H3          -1.6950     2.1130     0.0770 ha         1 8TD       0.122000
     17 H4          -3.1310    -1.9440     0.1020 ha         1 8TD       0.115000
     18 H5          -0.8260    -2.8060     0.0410 ha         1 8TD       0.121000
     19 H6           3.1730    -2.0580    -0.1030 h1         1 8TD       0.049367
     20 H7           1.9010    -2.8180     0.8600 h1         1 8TD       0.049367
     21 H8           1.8020    -2.8290    -0.9090 h1         1 8TD       0.049367
     22 H9           0.8590     3.0550     0.9150 h1         1 8TD       0.050033
     23 H10          2.2420     2.8210    -0.1640 h1         1 8TD       0.050033
     24 H11          0.6280     3.0560    -0.8430 h1         1 8TD       0.050033
@<TRIPOS>BOND
     1     1     8 1   
     2     1     9 1   
     3     1    12 1   
     4     2     5 1   
     5     2    14 1   
     6     2    15 1   
     7     3     4 ar  
     8     3    10 1   
     9     3    12 ar  
    10     4     5 ar  
    11     4    16 1   
    12     5     6 ar  
    13     6     7 ar  
    14     6    17 1   
    15     7    12 ar  
    16     7    18 1   
    17     8    19 1   
    18     8    20 1   
    19     8    21 1   
    20     9    10 1   
    21     9    13 2   
    22    10    11 1   
    23    11    22 1   
    24    11    23 1   
    25    11    24 1   
@<TRIPOS>SUBSTRUCTURE
     1 8TD         1 TEMP              0 ****  ****    0 ROOT
