@<TRIPOS>MOLECULE
8TD
   24    25     1     0     0
SMALL
No Charge or Current Charge


@<TRIPOS>ATOM
      1 N1           1.4090    -0.9920     0.1040 n          1 8TD      -0.289000
      2 N3          -3.8920     0.5730     0.0670 nv         1 8TD      -1.060000
      3 C4          -0.2350     0.5430    -0.1440 ca         1 8TD       0.044600
      4 C5          -1.5390     1.0400    -0.0180 ca         1 8TD      -0.179000
      5 C6          -2.6040     0.1200    -0.0080 ca         1 8TD       0.285000
      6 C7          -2.3480    -1.2690    -0.0140 ca         1 8TD      -0.177000
      7 C8          -1.0230    -1.7560    -0.0270 ca         1 8TD      -0.066000
      8 C1           2.1410    -2.2610    -0.0530 c3         1 8TD       0.107300
      9 C2           2.0340     0.2560     0.2300 c          1 8TD       0.596000
     10 N2           1.0030     1.1970     0.1080 n          1 8TD      -0.294000
     11 C3           1.2320     2.6430    -0.0490 c3         1 8TD       0.105300
     12 C9           0.0170    -0.8240    -0.1440 ca         1 8TD      -0.040400
     13 O1           3.2290     0.4780     0.3750 o          1 8TD      -0.571000
     14 H1          -4.0890     1.5660    -0.0430 hn         1 8TD       0.441000
     15 H2          -4.6680    -0.0780    -0.0380 hn         1 8TD       0.441000
     16 H3          -1.7200     2.1060     0.0790 ha         1 8TD       0.122000
     17 H4          -3.1740    -1.9720     0.0460 ha         1 8TD       0.115000
     18 H5          -0.8180    -2.8200     0.0640 ha         1 8TD       0.121000
     19 H6           3.1250    -2.0760    -0.5020 h1         1 8TD       0.049367
     20 H7           2.2750    -2.7300     0.9300 h1         1 8TD       0.049367
     21 H8           1.5770    -2.9400    -0.7040 h1         1 8TD       0.049367
     22 H9           1.1950     3.1290     0.9330 h1         1 8TD       0.050033
     23 H10          2.2140     2.8220    -0.5040 h1         1 8TD       0.050033
     24 H11          0.4580     3.0760    -0.6960 h1         1 8TD       0.050033
@<TRIPOS>BOND
     1     1     8 1   
     2     1     9 1   
     3     1    12 1   
     4     2     5 1   
     5     2    14 1   
     6     2    15 1   
     7     3     4 ar  
     8     3    10 1   
     9     3    12 ar  
    10     4     5 ar  
    11     4    16 1   
    12     5     6 ar  
    13     6     7 ar  
    14     6    17 1   
    15     7    12 ar  
    16     7    18 1   
    17     8    19 1   
    18     8    20 1   
    19     8    21 1   
    20     9    10 1   
    21     9    13 2   
    22    10    11 1   
    23    11    22 1   
    24    11    23 1   
    25    11    24 1   
@<TRIPOS>SUBSTRUCTURE
     1 8TD         1 TEMP              0 ****  ****    0 ROOT
