@<TRIPOS>MOLECULE
8TF
   68    72     1     0     0
SMALL
No Charge or Current Charge


@<TRIPOS>ATOM
      1 CAC         16.0610    -3.5840    30.0210 c3         1 8TF      -0.120100
      2 CAD         15.5700    -3.2260    28.6070 c3         1 8TF       0.231800
      3 NAA         15.7570    -1.7970    28.2680 nh         1 8TF      -0.690700
      4 CAE         14.7610    -0.8440    28.4730 ca         1 8TF       0.307500
      5 CAJ         13.4520    -1.0140    28.9530 ca         1 8TF      -0.158000
      6 CAI         12.6270     0.1210    29.0800 ca         1 8TF      -0.074000
      7 CAH         13.1210     1.3950    28.7310 ca         1 8TF      -0.151500
      8 CAG         14.4400     1.5440    28.2580 ca         1 8TF      -0.054000
      9 CAF         15.2500     0.4010    28.1400 ca         1 8TF      -0.148800
     10 CAK         16.6930     0.3190    27.6630 c5         1 8TF       0.034000
     11 CAL         16.7640     0.7670    26.1780 c3         1 8TF      -0.072600
     12 CAM         17.5910     1.2290    28.5440 c3         1 8TF      -0.072600
     13 CAN         16.9630    -1.2160    27.8600 c2         1 8TF       0.165300
     14 CAO         18.1240    -1.8910    27.7140 c2         1 8TF      -0.303700
     15 CAP         19.4630    -1.2580    27.2960 cy         1 8TF      -0.224000
     16 CBF         20.4140    -2.1790    26.4840 c          1 8TF       0.578600
     17 OBH         20.3490    -2.7550    25.4090 o          1 8TF      -0.472600
     18 CAQ         20.5290    -1.1430    28.4190 c          1 8TF       0.578600
     19 OBG         20.5940    -0.5660    29.4950 o          1 8TF      -0.472600
     20 CAR         21.4790    -2.0630    27.6080 cy         1 8TF      -0.224000
     21 CAS         22.8190    -1.4310    27.1900 c2         1 8TF      -0.303700
     22 CAT         23.9800    -2.1060    27.0450 c2         1 8TF       0.165300
     23 CBC         24.2490    -3.6410    27.2430 c5         1 8TF       0.034000
     24 CBD         24.1780    -4.0880    28.7280 c3         1 8TF      -0.072600
     25 CBE         23.3520    -4.5510    26.3620 c3         1 8TF      -0.072600
     26 CAX         25.6930    -3.7230    26.7670 ca         1 8TF      -0.148800
     27 CAY         26.5030    -4.8670    26.6500 ca         1 8TF      -0.054000
     28 CAZ         27.8230    -4.7180    26.1780 ca         1 8TF      -0.151500
     29 CBA         28.3170    -3.4440    25.8290 ca         1 8TF      -0.074000
     30 CBB         27.4920    -2.3090    25.9540 ca         1 8TF      -0.158000
     31 CAW         26.1820    -2.4790    26.4330 ca         1 8TF       0.307500
     32 NAB         25.1860    -1.5260    26.6370 nh         1 8TF      -0.690700
     33 CAU         25.3740    -0.0970    26.2970 c3         1 8TF       0.231800
     34 CAV         24.8840     0.2600    24.8830 c3         1 8TF      -0.120100
     35 H1          15.8980    -4.6490    30.2210 hc         1 8TF       0.045033
     36 H2          17.1310    -3.3730    30.1300 hc         1 8TF       0.045033
     37 H3          15.5160    -3.0040    30.7750 hc         1 8TF       0.045033
     38 H4          16.0810    -3.8560    27.8680 h1         1 8TF       0.054200
     39 H5          14.5080    -3.4940    28.5360 h1         1 8TF       0.054200
     40 H6          13.0740    -1.9940    29.2270 ha         1 8TF       0.118000
     41 H7          11.6090     0.0140    29.4480 ha         1 8TF       0.111000
     42 H8          12.4800     2.2690    28.8300 ha         1 8TF       0.115000
     43 H9          14.8200     2.5270    27.9910 ha         1 8TF       0.114000
     44 H10         17.7750     0.7200    25.7660 hc         1 8TF       0.042033
     45 H11         16.1250     0.1320    25.5510 hc         1 8TF       0.042033
     46 H12         16.4160     1.8000    26.0600 hc         1 8TF       0.042033
     47 H13         18.6330     1.2400    28.2130 hc         1 8TF       0.042033
     48 H14         17.2430     2.2680    28.5260 hc         1 8TF       0.042033
     49 H15         17.5780     0.8950    29.5880 hc         1 8TF       0.042033
     50 H16         18.1460    -2.9630    27.9030 ha         1 8TF       0.178500
     51 H17         19.3800    -0.3060    26.7760 hc         1 8TF       0.096200
     52 H18         21.5620    -3.0150    28.1280 hc         1 8TF       0.096200
     53 H19         22.7980    -0.3590    27.0000 ha         1 8TF       0.178500
     54 H20         24.5260    -5.1210    28.8470 hc         1 8TF       0.042033
     55 H21         24.8160    -3.4530    29.3550 hc         1 8TF       0.042033
     56 H22         23.1660    -4.0410    29.1390 hc         1 8TF       0.042033
     57 H23         23.7000    -5.5910    26.3810 hc         1 8TF       0.042033
     58 H24         22.3100    -4.5620    26.6920 hc         1 8TF       0.042033
     59 H25         23.3660    -4.2180    25.3170 hc         1 8TF       0.042033
     60 H26         26.1220    -5.8500    26.9180 ha         1 8TF       0.114000
     61 H27         28.4630    -5.5920    26.0810 ha         1 8TF       0.115000
     62 H28         29.3350    -3.3370    25.4620 ha         1 8TF       0.111000
     63 H29         27.8700    -1.3290    25.6810 ha         1 8TF       0.118000
     64 H30         24.8620     0.5340    27.0360 h1         1 8TF       0.054200
     65 H31         26.4360     0.1710    26.3690 h1         1 8TF       0.054200
     66 H32         25.0470     1.3250    24.6830 hc         1 8TF       0.045033
     67 H33         25.4290    -0.3200    24.1300 hc         1 8TF       0.045033
     68 H34         23.8140     0.0490    24.7740 hc         1 8TF       0.045033
@<TRIPOS>BOND
     1     1     2 1   
     2     1    35 1   
     3     1    36 1   
     4     1    37 1   
     5     2     3 1   
     6     2    38 1   
     7     2    39 1   
     8     3     4 1   
     9     3    13 1   
    10     4     5 ar  
    11     4     9 ar  
    12     5     6 ar  
    13     5    40 1   
    14     6     7 ar  
    15     6    41 1   
    16     7     8 ar  
    17     7    42 1   
    18     8     9 ar  
    19     8    43 1   
    20     9    10 1   
    21    10    11 1   
    22    10    12 1   
    23    10    13 1   
    24    11    44 1   
    25    11    45 1   
    26    11    46 1   
    27    12    47 1   
    28    12    48 1   
    29    12    49 1   
    30    13    14 2   
    31    14    15 1   
    32    14    50 1   
    33    15    16 1   
    34    15    18 1   
    35    15    51 1   
    36    16    17 2   
    37    16    20 1   
    38    18    19 2   
    39    18    20 1   
    40    20    21 1   
    41    20    52 1   
    42    21    22 2   
    43    21    53 1   
    44    22    23 1   
    45    22    32 1   
    46    23    24 1   
    47    23    25 1   
    48    23    26 1   
    49    24    54 1   
    50    24    55 1   
    51    24    56 1   
    52    25    57 1   
    53    25    58 1   
    54    25    59 1   
    55    26    27 ar  
    56    26    31 ar  
    57    27    28 ar  
    58    27    60 1   
    59    28    29 ar  
    60    28    61 1   
    61    29    30 ar  
    62    29    62 1   
    63    30    31 ar  
    64    30    63 1   
    65    31    32 1   
    66    32    33 1   
    67    33    34 1   
    68    33    64 1   
    69    33    65 1   
    70    34    66 1   
    71    34    67 1   
    72    34    68 1   
@<TRIPOS>SUBSTRUCTURE
     1 8TF         1 TEMP              0 ****  ****    0 ROOT
