@<TRIPOS>MOLECULE
8TF
   68    72     1     0     0
SMALL
bcc


@<TRIPOS>ATOM
      1 CAC         16.0620    -3.6310    29.8930 c3         1 8TF      -0.120100
      2 CAD         15.6500    -3.2000    28.4920 c3         1 8TF       0.231800
      3 NAA         15.7800    -1.7800    28.2710 nh         1 8TF      -0.552300
      4 CAE         14.7780    -0.8700    28.5470 ca         1 8TF       0.169100
      5 CAJ         13.4960    -1.0980    29.0270 ca         1 8TF      -0.176000
      6 CAI         12.6660     0.0070    29.2110 ca         1 8TF      -0.092000
      7 CAH         13.1000     1.2940    28.9280 ca         1 8TF      -0.169500
      8 CAG         14.3970     1.5020    28.4510 ca         1 8TF      -0.072000
      9 CAF         15.2260     0.4180    28.2680 ca         1 8TF      -0.148800
     10 CAK         16.6520     0.3560    27.7760 c5         1 8TF       0.034000
     11 CAL         16.7200     0.8330    26.3190 c3         1 8TF      -0.072600
     12 CAM         17.5590     1.2000    28.6740 c3         1 8TF      -0.072600
     13 CAN         16.9490    -1.1430    27.8890 c2         1 8TF       0.165300
     14 CAO         18.1090    -1.7860    27.6750 c2         1 8TF      -0.253700
     15 CAP         19.3990    -1.1770    27.2570 cy         1 8TF      -0.224000
     16 CBF         20.3390    -1.9710    26.3400 c          1 8TF       0.578600
     17 OBH         20.2170    -2.4380    25.2470 o          1 8TF      -0.472600
     18 CAQ         20.5780    -1.1150    28.2420 c          1 8TF       0.578600
     19 OBG         20.7260    -0.5950    29.3080 o          1 8TF      -0.472600
     20 CAR         21.5010    -1.9460    27.3430 cy         1 8TF      -0.224000
     21 CAS         22.8330    -1.4270    26.9500 c2         1 8TF      -0.253700
     22 CAT         23.9850    -2.1190    26.8980 c2         1 8TF       0.165300
     23 CBC         24.2280    -3.5990    27.2090 c5         1 8TF       0.034000
     24 CBD         24.0140    -3.9100    28.6950 c3         1 8TF      -0.072600
     25 CBE         23.3860    -4.5230    26.3230 c3         1 8TF      -0.072600
     26 CAX         25.6910    -3.7440    26.8620 ca         1 8TF      -0.148800
     27 CAY         26.5070    -4.8530    26.8980 ca         1 8TF      -0.072000
     28 CAZ         27.8460    -4.7250    26.5210 ca         1 8TF      -0.169500
     29 CBA         28.3340    -3.4910    26.1130 ca         1 8TF      -0.092000
     30 CBB         27.5170    -2.3620    26.0720 ca         1 8TF      -0.176000
     31 CAW         26.1930    -2.5100    26.4590 ca         1 8TF       0.169100
     32 NAB         25.1950    -1.5570    26.5260 nh         1 8TF      -0.552300
     33 CAU         25.3680    -0.1850    26.1150 c3         1 8TF       0.231800
     34 CAV         25.0330     0.0490    24.6480 c3         1 8TF      -0.120100
     35 H1          15.9390    -4.7080    30.0060 hc         1 8TF       0.045033
     36 H2          17.1060    -3.3890    30.0910 hc         1 8TF       0.045033
     37 H3          15.4500    -3.1410    30.6510 hc         1 8TF       0.045033
     38 H4          16.2420    -3.7240    27.7400 h1         1 8TF       0.054200
     39 H5          14.6130    -3.4800    28.3020 h1         1 8TF       0.054200
     40 H6          13.1400    -2.0920    29.2640 ha         1 8TF       0.136000
     41 H7          11.6630    -0.1490    29.5870 ha         1 8TF       0.129000
     42 H8          12.4370     2.1360    29.0810 ha         1 8TF       0.133000
     43 H9          14.7430     2.5060    28.2320 ha         1 8TF       0.132000
     44 H10         17.7340     0.7820    25.9230 hc         1 8TF       0.042033
     45 H11         16.0760     0.2330    25.6770 hc         1 8TF       0.042033
     46 H12         16.3930     1.8720    26.2530 hc         1 8TF       0.042033
     47 H13         18.5940     1.1920    28.3370 hc         1 8TF       0.042033
     48 H14         17.2210     2.2380    28.6660 hc         1 8TF       0.042033
     49 H15         17.5350     0.8450    29.7040 hc         1 8TF       0.042033
     50 H16         18.1550    -2.8550    27.8530 ha         1 8TF       0.128500
     51 H17         19.2860    -0.1760    26.8200 hc         1 8TF       0.096200
     52 H18         21.5370    -2.9480    27.7930 hc         1 8TF       0.096200
     53 H19         22.8370    -0.3840    26.6540 ha         1 8TF       0.128500
     54 H20         24.3100    -4.9390    28.9010 hc         1 8TF       0.042033
     55 H21         24.6140    -3.2530    29.3250 hc         1 8TF       0.042033
     56 H22         22.9710    -3.8040    28.9940 hc         1 8TF       0.042033
     57 H23         23.6900    -5.5590    26.4780 hc         1 8TF       0.042033
     58 H24         22.3230    -4.4590    26.5520 hc         1 8TF       0.042033
     59 H25         23.5190    -4.2870    25.2670 hc         1 8TF       0.042033
     60 H26         26.1180    -5.8150    27.2130 ha         1 8TF       0.132000
     61 H27         28.4990    -5.5870    26.5410 ha         1 8TF       0.133000
     62 H28         29.3710    -3.3990    25.8150 ha         1 8TF       0.129000
     63 H29         27.9170    -1.4130    25.7410 ha         1 8TF       0.136000
     64 H30         24.7540     0.4500    26.7550 h1         1 8TF       0.054200
     65 H31         26.4010     0.1030    26.3160 h1         1 8TF       0.054200
     66 H32         25.1760     1.0990    24.3930 hc         1 8TF       0.045033
     67 H33         25.6770    -0.5450    23.9990 hc         1 8TF       0.045033
     68 H34         23.9970    -0.2120    24.4320 hc         1 8TF       0.045033
@<TRIPOS>BOND
     1     1     2 1   
     2     1    35 1   
     3     1    36 1   
     4     1    37 1   
     5     2     3 1   
     6     2    38 1   
     7     2    39 1   
     8     3     4 1   
     9     3    13 1   
    10     4     5 ar  
    11     4     9 ar  
    12     5     6 ar  
    13     5    40 1   
    14     6     7 ar  
    15     6    41 1   
    16     7     8 ar  
    17     7    42 1   
    18     8     9 ar  
    19     8    43 1   
    20     9    10 1   
    21    10    11 1   
    22    10    12 1   
    23    10    13 1   
    24    11    44 1   
    25    11    45 1   
    26    11    46 1   
    27    12    47 1   
    28    12    48 1   
    29    12    49 1   
    30    13    14 2   
    31    14    15 1   
    32    14    50 1   
    33    15    16 1   
    34    15    18 1   
    35    15    51 1   
    36    16    17 2   
    37    16    20 1   
    38    18    19 2   
    39    18    20 1   
    40    20    21 1   
    41    20    52 1   
    42    21    22 2   
    43    21    53 1   
    44    22    23 1   
    45    22    32 1   
    46    23    24 1   
    47    23    25 1   
    48    23    26 1   
    49    24    54 1   
    50    24    55 1   
    51    24    56 1   
    52    25    57 1   
    53    25    58 1   
    54    25    59 1   
    55    26    27 ar  
    56    26    31 ar  
    57    27    28 ar  
    58    27    60 1   
    59    28    29 ar  
    60    28    61 1   
    61    29    30 ar  
    62    29    62 1   
    63    30    31 ar  
    64    30    63 1   
    65    31    32 1   
    66    32    33 1   
    67    33    34 1   
    68    33    64 1   
    69    33    65 1   
    70    34    66 1   
    71    34    67 1   
    72    34    68 1   
@<TRIPOS>SUBSTRUCTURE
     1 8TF         1 TEMP              0 ****  ****    0 ROOT
