@<TRIPOS>MOLECULE
8TG
   23    24     1     0     0
SMALL
abcg2


@<TRIPOS>ATOM
      1 N1           2.7520    -0.8140     0.0190 n          1 8TG      -0.277000
      2 C4           2.6440     1.9690    -0.0100 cc         1 8TG      -0.082200
      3 C5           1.4370     1.2010     0.0010 ca         1 8TG      -0.145800
      4 C6           0.1910     1.8060    -0.0040 ca         1 8TG       0.016000
      5 C7          -0.9790     1.0670     0.0070 ca         1 8TG      -0.206200
      6 C8          -0.8970    -0.3380     0.0210 ca         1 8TG       0.077100
      7 C10          1.5260    -0.2020     0.0140 ca         1 8TG       0.143600
      8 C1           2.8180    -2.2690     0.0330 c3         1 8TG       0.062300
      9 C2           3.9480    -0.1000     0.0100 c          1 8TG       0.562200
     10 C3           3.8330     1.3500    -0.0070 cd         1 8TG      -0.280200
     11 C9           0.3420    -0.9490     0.0250 ca         1 8TG      -0.166000
     12 BR1         -2.3620    -1.5120     0.0400 br         1 8TG      -0.017100
     13 N2          -2.2230     1.8160     0.0010 no         1 8TG       0.704200
     14 O1          -2.1470     3.0240    -0.0020 o          1 8TG      -0.390500
     15 O2          -3.2690     1.2160    -0.0000 o          1 8TG      -0.390500
     16 O3           5.0260    -0.6690     0.0150 o          1 8TG      -0.521000
     17 H1           2.5770     3.0490    -0.0230 ha         1 8TG       0.200000
     18 H2           0.1460     2.8860    -0.0140 ha         1 8TG       0.158000
     19 H3           3.8560    -2.5780     0.0310 h1         1 8TG       0.062367
     20 H4           2.3410    -2.6650     0.9280 h1         1 8TG       0.062367
     21 H5           2.3310    -2.6820    -0.8490 h1         1 8TG       0.062367
     22 H6           4.7600     1.9060    -0.0160 ha         1 8TG       0.218000
     23 H7           0.3830    -2.0270     0.0380 ha         1 8TG       0.146000
@<TRIPOS>BOND
     1     1     7 1   
     2     1     8 1   
     3     1     9 1   
     4     2     3 1   
     5     2    10 2   
     6     2    17 1   
     7     3     4 ar  
     8     3     7 ar  
     9     4     5 ar  
    10     4    18 1   
    11     5     6 ar  
    12     5    13 1   
    13     6    11 ar  
    14     6    12 1   
    15     7    11 ar  
    16     8    19 1   
    17     8    20 1   
    18     8    21 1   
    19     9    10 1   
    20     9    16 2   
    21    10    22 1   
    22    11    23 1   
    23    13    14 1   
    24    13    15 1   
@<TRIPOS>SUBSTRUCTURE
     1 8TG         1 TEMP              0 ****  ****    0 ROOT
