@<TRIPOS>MOLECULE
8TG
   23    24     1     0     0
SMALL
No Charge or Current Charge


@<TRIPOS>ATOM
      1 N1           2.8070    -0.8510     0.0440 n          1 8TG      -0.277000
      2 C4           2.6420     2.0140    -0.0970 cc         1 8TG      -0.082200
      3 C5           1.4360     1.1950    -0.0560 ca         1 8TG      -0.145800
      4 C6           0.1820     1.8350    -0.0600 ca         1 8TG       0.016000
      5 C7          -1.0100     1.0860     0.0130 ca         1 8TG      -0.206200
      6 C8          -0.9350    -0.3190     0.1210 ca         1 8TG       0.077100
      7 C10          1.5130    -0.2130     0.0000 ca         1 8TG       0.143600
      8 C1           2.8900    -2.3350    -0.0050 c3         1 8TG       0.062300
      9 C2           4.0090    -0.1080     0.0560 c          1 8TG       0.562200
     10 C3           3.8520     1.3560    -0.0230 cd         1 8TG      -0.280200
     11 C9           0.3170    -0.9540     0.1250 ca         1 8TG      -0.166000
     12 Br1         -2.4990    -1.4180     0.3310 br         1 8TG      -0.017100
     13 N2          -2.3130     1.8000    -0.0020 no         1 8TG       0.704200
     14 O1          -2.3960     2.8470     0.6530 o          1 8TG      -0.390500
     15 O2          -3.1620     1.4380    -0.8270 o          1 8TG      -0.390500
     16 O3           5.1170    -0.6250     0.1180 o          1 8TG      -0.521000
     17 H1           2.6070     3.1010    -0.1590 ha         1 8TG       0.200000
     18 H2           0.1350     2.9220    -0.1200 ha         1 8TG       0.158000
     19 H3           3.9170    -2.6830    -0.1720 h1         1 8TG       0.062367
     20 H4           2.5290    -2.7560     0.9420 h1         1 8TG       0.062367
     21 H5           2.2710    -2.7140    -0.8280 h1         1 8TG       0.062367
     22 H6           4.7890     1.9000    -0.0270 ha         1 8TG       0.218000
     23 H7           0.3360    -2.0340     0.2290 ha         1 8TG       0.146000
@<TRIPOS>BOND
     1     1     7 1   
     2     1     8 1   
     3     1     9 1   
     4     2     3 1   
     5     2    10 2   
     6     2    17 1   
     7     3     4 ar  
     8     3     7 ar  
     9     4     5 ar  
    10     4    18 1   
    11     5     6 ar  
    12     5    13 1   
    13     6    11 ar  
    14     6    12 1   
    15     7    11 ar  
    16     8    19 1   
    17     8    20 1   
    18     8    21 1   
    19     9    10 1   
    20     9    16 2   
    21    10    22 1   
    22    11    23 1   
    23    13    14 1   
    24    13    15 1   
@<TRIPOS>SUBSTRUCTURE
     1 8TG         1 TEMP              0 ****  ****    0 ROOT
