@<TRIPOS>MOLECULE
8TJ
   21    22     1     0     0
SMALL
No Charge or Current Charge


@<TRIPOS>ATOM
      1 N1           3.1480     0.4960    -0.0140 ns         1 8TJ      -0.501900
      2 C4          -0.0500    -1.3470    -0.0060 cc         1 8TJ      -0.093200
      3 C5          -1.3880    -0.7980     0.0120 ca         1 8TJ      -0.137800
      4 C6          -2.5880    -1.5220     0.0140 ca         1 8TJ      -0.023000
      5 C7          -3.7810    -0.7760     0.0330 ca         1 8TJ      -0.173000
      6 C8          -3.7160     0.6340     0.0470 ca         1 8TJ       0.355900
      7 C1           4.6120     0.4950    -0.0260 c3         1 8TJ       0.095300
      8 C2           2.3690    -0.6360    -0.0190 c          1 8TJ       0.635300
      9 C3           0.9110    -0.3440    -0.0030 cd         1 8TJ      -0.137600
     10 N2          -2.5480     1.3220     0.0440 nb         1 8TJ      -0.638000
     11 C9          -1.4170     0.5860     0.0270 ca         1 8TJ       0.398300
     12 S1           0.2050     1.3090     0.0200 ss         1 8TJ      -0.138900
     13 O1           2.8460    -1.7630    -0.0350 o          1 8TJ      -0.596100
     14 H1           2.6570     1.3820     0.0000 hn         1 8TJ       0.319500
     15 H3          -2.5980    -2.6100     0.0030 ha         1 8TJ       0.127000
     16 H4          -4.7460    -1.2740     0.0360 ha         1 8TJ       0.128000
     17 H5          -4.6290     1.2290     0.0610 h4         1 8TJ       0.024100
     18 H6           4.9890    -0.0300     0.8610 h1         1 8TJ       0.042700
     19 H7           4.9740    -0.0110    -0.9310 h1         1 8TJ       0.042700
     20 H8           4.9800     1.5290    -0.0180 h1         1 8TJ       0.042700
     21 H2           0.1890    -2.4090    -0.0190 ha         1 8TJ       0.227000
@<TRIPOS>BOND
     1     1     7 1   
     2     1     8 1   
     3     1    14 1   
     4     2     3 1   
     5     2     9 2   
     6     2    21 1   
     7     3     4 ar  
     8     3    11 ar  
     9     4     5 ar  
    10     4    15 1   
    11     5     6 ar  
    12     5    16 1   
    13     6    10 ar  
    14     6    17 1   
    15     7    18 1   
    16     7    19 1   
    17     7    20 1   
    18     8     9 1   
    19     8    13 2   
    20     9    12 1   
    21    10    11 ar  
    22    11    12 1   
@<TRIPOS>SUBSTRUCTURE
     1 8TJ         1 TEMP              0 ****  ****    0 ROOT
