@<TRIPOS>MOLECULE
8TJ
   21    22     1     0     0
SMALL
abcg2


@<TRIPOS>ATOM
      1 N1           3.1360     0.5460    -0.0060 ns         1 8TJ      -0.501900
      2 C4          -0.0290    -1.3140     0.0020 cc         1 8TJ      -0.093200
      3 C5          -1.3730    -0.8370     0.0170 ca         1 8TJ      -0.137800
      4 C6          -2.5880    -1.5260     0.0280 ca         1 8TJ      -0.023000
      5 C7          -3.7520    -0.7850     0.0370 ca         1 8TJ      -0.173000
      6 C8          -3.6790     0.6120     0.0350 ca         1 8TJ       0.355900
      7 C1           4.5770     0.4430    -0.0260 c3         1 8TJ       0.095300
      8 C2           2.3510    -0.5370    -0.0300 c          1 8TJ       0.635300
      9 C3           0.8830    -0.3110    -0.0080 cd         1 8TJ      -0.137600
     10 N2          -2.5430     1.2900     0.0260 nb         1 8TJ      -0.638000
     11 C9          -1.4380     0.5670     0.0170 ca         1 8TJ       0.398300
     12 S1           0.1490     1.2710    -0.0010 ss         1 8TJ      -0.138900
     13 O1           2.7930    -1.6780    -0.0720 o          1 8TJ      -0.596100
     14 H1           2.7420     1.4710     0.0530 hn         1 8TJ       0.319500
     15 H3          -2.6120    -2.6070     0.0290 ha         1 8TJ       0.127000
     16 H4          -4.7180    -1.2680     0.0440 ha         1 8TJ       0.128000
     17 H5          -4.5900     1.2000     0.0420 h4         1 8TJ       0.024100
     18 H6           4.9520    -0.1150     0.8330 h1         1 8TJ       0.042700
     19 H7           4.9300    -0.0450    -0.9350 h1         1 8TJ       0.042700
     20 H8           4.9900     1.4460     0.0070 h1         1 8TJ       0.042700
     21 H2           0.2390    -2.3610    -0.0040 ha         1 8TJ       0.227000
@<TRIPOS>BOND
     1     1     7 1   
     2     1     8 1   
     3     1    14 1   
     4     2     3 1   
     5     2     9 2   
     6     2    21 1   
     7     3     4 ar  
     8     3    11 ar  
     9     4     5 ar  
    10     4    15 1   
    11     5     6 ar  
    12     5    16 1   
    13     6    10 ar  
    14     6    17 1   
    15     7    18 1   
    16     7    19 1   
    17     7    20 1   
    18     8     9 1   
    19     8    13 2   
    20     9    12 1   
    21    10    11 ar  
    22    11    12 1   
@<TRIPOS>SUBSTRUCTURE
     1 8TJ         1 TEMP              0 ****  ****    0 ROOT
