@<TRIPOS>MOLECULE
8TK
   47    50     1     0     0
SMALL
bcc


@<TRIPOS>ATOM
      1 C1           5.2530    -0.1120    -1.7390 c3         1 8TK      -0.026800
      2 C2           4.6360    -0.8510    -0.6020 cc         1 8TK       0.005400
      3 C3           5.2310    -1.8760     0.0240 cd         1 8TK      -0.153100
      4 N6           3.3670    -0.5780    -0.0490 n          1 8TK      -0.077200
      5 C7           2.4960     0.4480    -0.4820 c          1 8TK       0.607500
      6 C9           1.2520     0.5300     0.2240 cc         1 8TK      -0.178400
      7 C10          0.9320    -0.3300     1.2550 cd         1 8TK       0.019800
      8 C11          1.8410    -1.3210     1.6490 cd         1 8TK      -0.241000
      9 C12         -0.4300    -0.2280     1.9260 c3         1 8TK       0.271700
     10 C14         -0.5700    -1.0080     3.2240 c3         1 8TK      -0.103100
     11 C16         -2.4860     0.0950     0.5950 ca         1 8TK       0.792200
     12 C20         -3.7590     1.9420     0.8500 ca         1 8TK       0.755900
     13 C27         -1.3390     2.4260    -1.7610 ca         1 8TK      -0.129500
     14 C30          0.2290     2.7920     0.4930 ca         1 8TK      -0.103500
     15 S4           4.2840    -2.5510     1.3030 ss         1 8TK      -0.113800
     16 C5           3.0310    -1.4110     0.9830 cc         1 8TK       0.123600
     17 O8           2.8270     1.1900    -1.3970 o          1 8TK      -0.605500
     18 N15         -1.4340    -0.6440     0.9610 nu         1 8TK      -0.858900
     19 C17         -3.3170    -0.2970    -0.4800 ca         1 8TK      -0.443600
     20 C18         -4.3880     0.5560    -0.8190 ca         1 8TK       0.783200
     21 N19         -4.5970     1.6900    -0.1370 nb         1 8TK      -0.834000
     22 N21         -2.7400     1.2190     1.2680 nb         1 8TK      -0.826000
     23 N22         -5.2190     0.2860    -1.8250 nv         1 8TK      -0.960500
     24 C23         -3.0460    -1.4580    -1.2270 cg         1 8TK       0.257800
     25 N24         -2.8170    -2.4110    -1.8420 n1         1 8TK      -0.405800
     26 C25          0.3330     1.6040    -0.2250 ca         1 8TK      -0.033800
     27 C26         -0.4510     1.4380    -1.3640 ca         1 8TK      -0.103500
     28 C28         -1.4430     3.6040    -1.0320 ca         1 8TK      -0.124000
     29 C29         -0.6520     3.7870     0.0930 ca         1 8TK      -0.129500
     30 H1           5.4150     0.9390    -1.5080 hc         1 8TK       0.064700
     31 H2           6.2190    -0.5660    -1.9480 hc         1 8TK       0.064700
     32 H3           4.6490    -0.1680    -2.6430 hc         1 8TK       0.064700
     33 H4           6.2030    -2.2810    -0.2080 h4         1 8TK       0.184000
     34 H6           1.6380    -2.0100     2.4540 ha         1 8TK       0.159000
     35 H7          -0.6250     0.8220     2.1400 h1         1 8TK       0.107700
     36 H8          -0.4880    -2.0840     3.0720 hc         1 8TK       0.047367
     37 H9           0.1830    -0.7020     3.9510 hc         1 8TK       0.047367
     38 H10         -1.5510    -0.8060     3.6530 hc         1 8TK       0.047367
     39 H11         -3.9380     2.8630     1.3950 h5         1 8TK       0.044100
     40 H12         -1.9550     2.2750    -2.6380 ha         1 8TK       0.130000
     41 H13          0.8400     2.9360     1.3760 ha         1 8TK       0.130500
     42 H14         -1.2580    -1.5100     0.4730 hn         1 8TK       0.447800
     43 H15         -5.1710    -0.5650    -2.3570 hn         1 8TK       0.449800
     44 H16         -5.9760     0.9180    -2.0200 hn         1 8TK       0.449800
     45 H17         -0.3780     0.5220    -1.9380 ha         1 8TK       0.130500
     46 H18         -2.1390     4.3740    -1.3400 ha         1 8TK       0.130000
     47 H19         -0.7230     4.7040     0.6650 ha         1 8TK       0.130000
@<TRIPOS>BOND
     1     1     2 1   
     2     1    30 1   
     3     1    31 1   
     4     1    32 1   
     5     2     3 2   
     6     2     4 1   
     7     3    15 1   
     8     3    33 1   
     9     4     5 1   
    10     4    16 1   
    11     5     6 1   
    12     5    17 2   
    13     6     7 2   
    14     6    26 1   
    15     7     8 1   
    16     7     9 1   
    17     8    16 2   
    18     8    34 1   
    19     9    10 1   
    20     9    18 1   
    21     9    35 1   
    22    10    36 1   
    23    10    37 1   
    24    10    38 1   
    25    11    18 1   
    26    11    19 ar  
    27    11    22 ar  
    28    12    21 ar  
    29    12    22 ar  
    30    12    39 1   
    31    13    27 ar  
    32    13    28 ar  
    33    13    40 1   
    34    14    26 ar  
    35    14    29 ar  
    36    14    41 1   
    37    15    16 1   
    38    18    42 1   
    39    19    20 ar  
    40    19    24 1   
    41    20    21 ar  
    42    20    23 1   
    43    23    43 1   
    44    23    44 1   
    45    24    25 3   
    46    26    27 ar  
    47    27    45 1   
    48    28    29 ar  
    49    28    46 1   
    50    29    47 1   
@<TRIPOS>SUBSTRUCTURE
     1 8TK         1 TEMP              0 ****  ****    0 ROOT
