@<TRIPOS>MOLECULE
8TK
   47    50     1     0     0
SMALL
No Charge or Current Charge


@<TRIPOS>ATOM
      1 C1           5.1540    -0.3430    -1.9120 c3         1 8TK      -0.026800
      2 C2           4.4020    -1.0900    -0.8380 cc         1 8TK      -0.045300
      3 C3           4.8340    -2.2980    -0.3180 cd         1 8TK      -0.280000
      4 N6           3.2060    -0.6280    -0.2770 n          1 8TK       0.024200
      5 C7           2.4870     0.5480    -0.5840 c          1 8TK       0.532000
      6 C9           1.2420     0.7250     0.2190 cc         1 8TK      -0.178400
      7 C10          0.7950    -0.1700     1.2030 cd         1 8TK       0.019800
      8 C11          1.6100    -1.3520     1.4100 cd         1 8TK      -0.291000
      9 C12         -0.4930     0.0300     2.0080 c3         1 8TK       0.271700
     10 C14         -0.4090    -0.4210     3.4800 c3         1 8TK      -0.103100
     11 C16         -2.6320    -0.1090     0.6480 ca         1 8TK       0.463900
     12 C20         -4.1480     1.5980     0.5250 ca         1 8TK       0.229900
     13 C27         -1.4080     2.9340    -1.3140 ca         1 8TK      -0.111500
     14 C30          0.5070     3.0490     0.7410 ca         1 8TK      -0.085500
     15 S4           3.7320    -2.9230     0.9280 ss         1 8TK       0.176000
     16 C5           2.7550    -1.5020     0.6660 cc         1 8TK      -0.072000
     17 O8           2.8400     1.3600    -1.4340 o          1 8TK      -0.530000
     18 N15         -1.5760    -0.7010     1.3310 nu         1 8TK      -0.914100
     19 C17         -3.1210    -0.6330    -0.5570 ca         1 8TK      -0.313000
     20 C18         -4.1680     0.0700    -1.1620 ca         1 8TK       0.454900
     21 N19         -4.6890     1.1810    -0.6340 nb         1 8TK      -0.308000
     22 N21         -3.1440     1.0060     1.1950 nb         1 8TK      -0.300000
     23 N22         -4.7430    -0.3090    -2.3320 nv         1 8TK      -1.070900
     24 C23         -2.5620    -1.8100    -1.1470 cg         1 8TK       0.347000
     25 N24         -2.1010    -2.7740    -1.6130 n1         1 8TK      -0.495000
     26 C25          0.3850     1.8820    -0.0370 ca         1 8TK      -0.033800
     27 C26         -0.5690     1.8330    -1.0710 ca         1 8TK      -0.085500
     28 C28         -1.2920     4.0920    -0.5260 ca         1 8TK      -0.106000
     29 C29         -0.3320     4.1500     0.4990 ca         1 8TK      -0.111500
     30 H1           5.4530     0.6540    -1.5660 hc         1 8TK       0.064700
     31 H2           6.0680    -0.8780    -2.1980 hc         1 8TK       0.064700
     32 H3           4.5450    -0.2290    -2.8160 hc         1 8TK       0.064700
     33 H4           5.7220    -2.8600    -0.5820 h4         1 8TK       0.166000
     34 H6           1.3290    -2.1120     2.1340 ha         1 8TK       0.209000
     35 H7          -0.7190     1.1040     2.0480 h1         1 8TK       0.107700
     36 H8          -0.3120    -1.5080     3.5690 hc         1 8TK       0.047367
     37 H9           0.4490     0.0500     3.9750 hc         1 8TK       0.047367
     38 H10         -1.3170    -0.1210     4.0180 hc         1 8TK       0.047367
     39 H11         -4.5640     2.5030     0.9640 h5         1 8TK       0.044100
     40 H12         -2.1490     2.8870    -2.1080 ha         1 8TK       0.112000
     41 H13          1.2480     3.0970     1.5360 ha         1 8TK       0.112500
     42 H14         -1.2930    -1.5970     0.9380 hn         1 8TK       0.503000
     43 H15         -4.5890    -1.2540    -2.6740 hn         1 8TK       0.505000
     44 H16         -5.6190     0.1340    -2.6010 hn         1 8TK       0.505000
     45 H17         -0.6640     0.9370    -1.6800 ha         1 8TK       0.112500
     46 H18         -1.9430     4.9440    -0.7120 ha         1 8TK       0.112000
     47 H19         -0.2390     5.0480     1.1060 ha         1 8TK       0.112000
@<TRIPOS>BOND
     1     1     2 1   
     2     1    30 1   
     3     1    31 1   
     4     1    32 1   
     5     2     3 2   
     6     2     4 1   
     7     3    15 1   
     8     3    33 1   
     9     4     5 1   
    10     4    16 1   
    11     5     6 1   
    12     5    17 2   
    13     6     7 2   
    14     6    26 1   
    15     7     8 1   
    16     7     9 1   
    17     8    16 2   
    18     8    34 1   
    19     9    10 1   
    20     9    18 1   
    21     9    35 1   
    22    10    36 1   
    23    10    37 1   
    24    10    38 1   
    25    11    18 1   
    26    11    19 ar  
    27    11    22 ar  
    28    12    21 ar  
    29    12    22 ar  
    30    12    39 1   
    31    13    27 ar  
    32    13    28 ar  
    33    13    40 1   
    34    14    26 ar  
    35    14    29 ar  
    36    14    41 1   
    37    15    16 1   
    38    18    42 1   
    39    19    20 ar  
    40    19    24 1   
    41    20    21 ar  
    42    20    23 1   
    43    23    43 1   
    44    23    44 1   
    45    24    25 3   
    46    26    27 ar  
    47    27    45 1   
    48    28    29 ar  
    49    28    46 1   
    50    29    47 1   
@<TRIPOS>SUBSTRUCTURE
     1 8TK         1 TEMP              0 ****  ****    0 ROOT
