@<TRIPOS>MOLECULE
8TL
   64    65     1     0     0
SMALL
abcg2


@<TRIPOS>ATOM
      1 N1          -1.5860     3.3770     1.6810 n          1 8TL      -0.255300
      2 N3          -3.6760     5.9530     1.6500 n          1 8TL      -0.396800
      3 C4          -2.6490     0.6750     3.8680 c3         1 8TL      -0.055400
      4 C5          -4.1270     0.5150     3.5170 c3         1 8TL      -0.090100
      5 C6          -0.3440     3.1510     1.1190 c          1 8TL       0.619100
      6 C7           1.1450     1.5160     0.2140 c3         1 8TL       0.187300
      7 C8           0.8840     0.2530    -0.5790 c3         1 8TL      -0.106600
      8 C10         -3.5060     5.4740     4.0240 c6         1 8TL       0.025700
      9 C13         -4.3430     6.4010     0.4290 c3         1 8TL       0.101000
     10 C15         -4.7490     8.3700    -1.1590 c3         1 8TL      -0.058700
     11 C17         -4.3160     9.8070    -1.4520 c3         1 8TL      -0.088600
     12 C20         -3.5060     6.3960     7.9510 c3         1 8TL       0.037900
     13 C9           2.1850     1.3430     1.3050 c3         1 8TL      -0.106600
     14 O4          -0.1390     1.8720     0.8290 os         1 8TL      -0.433100
     15 O3           0.4150     4.0760     0.8900 o          1 8TL      -0.533000
     16 O1          -2.3070     2.2700     2.1070 os         1 8TL      -0.185100
     17 C1          -2.0540     2.0260     3.5100 c6         1 8TL       0.044300
     18 C2          -2.6770     3.1920     4.2710 c          1 8TL       0.549000
     19 O2          -3.2230     3.0590     5.3590 o          1 8TL      -0.526000
     20 N2          -2.6500     4.3690     3.5900 n          1 8TL      -0.423800
     21 C3          -1.7430     4.6120     2.4810 c6         1 8TL       0.275100
     22 C11         -2.2290     5.7950     1.6320 c6         1 8TL       0.096000
     23 C14         -4.1240     7.8870     0.1540 c3         1 8TL      -0.100400
     24 C16         -6.2760     8.2600    -1.1490 c3         1 8TL      -0.088600
     25 C12         -4.3250     5.9610     2.8320 c          1 8TL       0.554000
     26 O5          -5.5010     6.2970     2.9700 o          1 8TL      -0.543000
     27 C18         -2.7340     6.5860     4.7480 c3         1 8TL      -0.079400
     28 C19         -3.6290     7.6170     5.4280 c3         1 8TL       0.061600
     29 S1          -4.7250     6.9650     6.7310 ss         1 8TL      -0.421000
     30 H1          -2.4950     0.5320     4.9390 hc         1 8TL       0.058700
     31 H2          -2.0560    -0.0860     3.3560 hc         1 8TL       0.058700
     32 H3          -4.4770    -0.4720     3.8240 hc         1 8TL       0.045033
     33 H4          -4.7390     1.2620     4.0230 hc         1 8TL       0.045033
     34 H5          -4.2910     0.6090     2.4430 hc         1 8TL       0.045033
     35 H6           1.4230     2.3340    -0.4500 h1         1 8TL       0.070700
     36 H7           0.1170     0.4200    -1.3350 hc         1 8TL       0.051367
     37 H8           1.8030    -0.0570    -1.0790 hc         1 8TL       0.051367
     38 H9           0.5610    -0.5550     0.0810 hc         1 8TL       0.051367
     39 H10         -4.2190     5.0470     4.7240 h1         1 8TL       0.131700
     40 H11         -5.4000     6.1750     0.5400 h1         1 8TL       0.065700
     41 H12         -3.9500     5.8020    -0.3960 h1         1 8TL       0.065700
     42 H13         -4.3670     7.7310    -1.9650 hc         1 8TL       0.042700
     43 H14         -3.2270     9.8910    -1.4910 hc         1 8TL       0.034700
     44 H15         -4.7180    10.1520    -2.4070 hc         1 8TL       0.034700
     45 H16         -4.6770    10.4840    -0.6720 hc         1 8TL       0.034700
     46 H17         -4.0660     6.1000     8.8370 h1         1 8TL       0.060700
     47 H18         -2.9460     5.5380     7.5820 h1         1 8TL       0.060700
     48 H19         -2.8230     7.2050     8.2110 h1         1 8TL       0.060700
     49 H20          2.3210     2.2670     1.8670 hc         1 8TL       0.051367
     50 H21          1.8850     0.5490     1.9920 hc         1 8TL       0.051367
     51 H22          3.1420     1.0690     0.8560 hc         1 8TL       0.051367
     52 H23         -0.9720     2.0130     3.6760 h1         1 8TL       0.067700
     53 H24         -0.7500     4.8680     2.8560 h2         1 8TL       0.065700
     54 H25         -1.9130     5.6270     0.6070 h1         1 8TL       0.069200
     55 H26         -1.7350     6.7030     1.9800 h1         1 8TL       0.069200
     56 H27         -3.0480     8.0850     0.1250 hc         1 8TL       0.044200
     57 H28         -4.5310     8.4680     0.9880 hc         1 8TL       0.044200
     58 H29         -6.6120     7.2310    -1.0140 hc         1 8TL       0.034700
     59 H30         -6.6960     8.8610    -0.3370 hc         1 8TL       0.034700
     60 H31         -6.6950     8.6250    -2.0890 hc         1 8TL       0.034700
     61 H32         -2.0870     6.1050     5.4830 hc         1 8TL       0.049700
     62 H33         -2.0770     7.1170     4.0560 hc         1 8TL       0.049700
     63 H34         -3.0100     8.4020     5.8670 h1         1 8TL       0.075700
     64 H35         -4.3010     8.0880     4.7100 h1         1 8TL       0.075700
@<TRIPOS>BOND
     1     1     5 1   
     2     1    16 1   
     3     1    21 1   
     4     2     9 1   
     5     2    22 1   
     6     2    25 1   
     7     3     4 1   
     8     3    17 1   
     9     3    30 1   
    10     3    31 1   
    11     4    32 1   
    12     4    33 1   
    13     4    34 1   
    14     5    14 1   
    15     5    15 2   
    16     6     7 1   
    17     6    13 1   
    18     6    14 1   
    19     6    35 1   
    20     7    36 1   
    21     7    37 1   
    22     7    38 1   
    23     8    20 1   
    24     8    25 1   
    25     8    27 1   
    26     8    39 1   
    27     9    23 1   
    28     9    40 1   
    29     9    41 1   
    30    10    11 1   
    31    10    23 1   
    32    10    24 1   
    33    10    42 1   
    34    11    43 1   
    35    11    44 1   
    36    11    45 1   
    37    12    29 1   
    38    12    46 1   
    39    12    47 1   
    40    12    48 1   
    41    13    49 1   
    42    13    50 1   
    43    13    51 1   
    44    16    17 1   
    45    17    18 1   
    46    17    52 1   
    47    18    19 2   
    48    18    20 1   
    49    20    21 1   
    50    21    22 1   
    51    21    53 1   
    52    22    54 1   
    53    22    55 1   
    54    23    56 1   
    55    23    57 1   
    56    24    58 1   
    57    24    59 1   
    58    24    60 1   
    59    25    26 2   
    60    27    28 1   
    61    27    61 1   
    62    27    62 1   
    63    28    29 1   
    64    28    63 1   
    65    28    64 1   
@<TRIPOS>SUBSTRUCTURE
     1 8TL         1 TEMP              0 ****  ****    0 ROOT
