@<TRIPOS>MOLECULE
8TL
   64    65     1     0     0
SMALL
No Charge or Current Charge


@<TRIPOS>ATOM
      1 N1          -1.5230     3.3870     1.7270 n          1 8TL      -0.255300
      2 N3          -3.7310     6.0690     1.6880 n          1 8TL      -0.396800
      3 C4          -2.5290     0.5790     3.9080 c3         1 8TL      -0.055400
      4 C5          -4.0130     0.2990     3.5750 c3         1 8TL      -0.090100
      5 C6          -0.2820     3.2010     1.0870 c          1 8TL       0.619100
      6 C7           1.1430     1.5140     0.0890 c3         1 8TL       0.187300
      7 C8           0.8860     0.1900    -0.6540 c3         1 8TL      -0.106600
      8 C10         -3.5670     5.5080     4.1310 c6         1 8TL       0.025700
      9 C13         -4.4440     6.4900     0.4610 c3         1 8TL       0.101000
     10 C15         -4.7700     8.3960    -1.2860 c3         1 8TL      -0.058700
     11 C17         -4.2520     9.7890    -1.7100 c3         1 8TL      -0.088600
     12 C20         -3.6620     6.3440     8.1160 c3         1 8TL       0.037900
     13 C9           2.1870     1.3580     1.2190 c3         1 8TL      -0.106600
     14 O4          -0.1100     1.9050     0.6750 os         1 8TL      -0.433100
     15 O3           0.5290     4.1010     0.9170 o          1 8TL      -0.533000
     16 O1          -2.2860     2.2430     2.1410 os         1 8TL      -0.185100
     17 C1          -2.0080     2.0030     3.5380 c6         1 8TL       0.044300
     18 C2          -2.6640     3.1400     4.3520 c          1 8TL       0.549000
     19 O2          -3.2930     2.9550     5.3880 o          1 8TL      -0.526000
     20 N2          -2.6850     4.3790     3.6900 n          1 8TL      -0.423800
     21 C3          -1.7930     4.6280     2.5120 c6         1 8TL       0.275100
     22 C11         -2.2750     5.8000     1.6020 c6         1 8TL       0.096000
     23 C14         -4.1120     7.9410     0.0440 c3         1 8TL      -0.100400
     24 C16         -6.3170     8.3810    -1.2250 c3         1 8TL      -0.088600
     25 C12         -4.3470     6.1500     2.9520 c          1 8TL       0.554000
     26 O5          -5.4780     6.5970     3.0950 o          1 8TL      -0.543000
     27 C18         -2.7560     6.5860     4.9160 c3         1 8TL      -0.079400
     28 C19         -3.5930     7.6950     5.5970 c3         1 8TL       0.061600
     29 S1          -4.8070     7.0110     6.8220 ss         1 8TL      -0.421000
     30 H1          -2.3690     0.3970     4.9780 hc         1 8TL       0.058700
     31 H2          -1.9170    -0.1670     3.3860 hc         1 8TL       0.058700
     32 H3          -4.2840    -0.7200     3.8790 hc         1 8TL       0.045033
     33 H4          -4.6770     0.9960     4.0990 hc         1 8TL       0.045033
     34 H5          -4.1980     0.3900     2.4980 hc         1 8TL       0.045033
     35 H6           1.4920     2.2590    -0.6390 h1         1 8TL       0.070700
     36 H7           0.1350     0.3320    -1.4400 hc         1 8TL       0.051367
     37 H8           1.8070    -0.1710    -1.1260 hc         1 8TL       0.051367
     38 H9           0.5260    -0.5820     0.0360 hc         1 8TL       0.051367
     39 H10         -4.3480     5.1130     4.7950 h1         1 8TL       0.131700
     40 H11         -5.5250     6.3830     0.6120 h1         1 8TL       0.065700
     41 H12         -4.1650     5.8100    -0.3540 h1         1 8TL       0.065700
     42 H13         -4.4660     7.6880    -2.0680 hc         1 8TL       0.042700
     43 H14         -3.1600     9.7830    -1.8110 hc         1 8TL       0.034700
     44 H15         -4.6780    10.0840    -2.6770 hc         1 8TL       0.034700
     45 H16         -4.5250    10.5500    -0.9690 hc         1 8TL       0.034700
     46 H17         -4.2440     6.0030     8.9820 h1         1 8TL       0.060700
     47 H18         -3.0930     5.4950     7.7170 h1         1 8TL       0.060700
     48 H19         -2.9660     7.1280     8.4410 h1         1 8TL       0.060700
     49 H20          2.3970     2.3190     1.7000 hc         1 8TL       0.051367
     50 H21          1.8300     0.6570     1.9830 hc         1 8TL       0.051367
     51 H22          3.1310     0.9730     0.8150 hc         1 8TL       0.051367
     52 H23         -0.9230     2.0460     3.7130 h1         1 8TL       0.067700
     53 H24         -0.8220     4.9320     2.9310 h2         1 8TL       0.065700
     54 H25         -1.9860     5.6010     0.5600 h1         1 8TL       0.069200
     55 H26         -1.7440     6.7130     1.9040 h1         1 8TL       0.069200
     56 H27         -3.0230     8.0340    -0.0550 hc         1 8TL       0.044200
     57 H28         -4.4120     8.6210     0.8500 hc         1 8TL       0.044200
     58 H29         -6.7000     7.3670    -1.0650 hc         1 8TL       0.034700
     59 H30         -6.6820     9.0220    -0.4130 hc         1 8TL       0.034700
     60 H31         -6.7440     8.7480    -2.1670 hc         1 8TL       0.034700
     61 H32         -2.1490     6.0920     5.6830 hc         1 8TL       0.049700
     62 H33         -2.0380     7.0730     4.2460 hc         1 8TL       0.049700
     63 H34         -2.9210     8.3940     6.1140 h1         1 8TL       0.075700
     64 H35         -4.1420     8.2650     4.8360 h1         1 8TL       0.075700
@<TRIPOS>BOND
     1     1     5 1   
     2     1    16 1   
     3     1    21 1   
     4     2     9 1   
     5     2    22 1   
     6     2    25 1   
     7     3     4 1   
     8     3    17 1   
     9     3    30 1   
    10     3    31 1   
    11     4    32 1   
    12     4    33 1   
    13     4    34 1   
    14     5    14 1   
    15     5    15 2   
    16     6     7 1   
    17     6    13 1   
    18     6    14 1   
    19     6    35 1   
    20     7    36 1   
    21     7    37 1   
    22     7    38 1   
    23     8    20 1   
    24     8    25 1   
    25     8    27 1   
    26     8    39 1   
    27     9    23 1   
    28     9    40 1   
    29     9    41 1   
    30    10    11 1   
    31    10    23 1   
    32    10    24 1   
    33    10    42 1   
    34    11    43 1   
    35    11    44 1   
    36    11    45 1   
    37    12    29 1   
    38    12    46 1   
    39    12    47 1   
    40    12    48 1   
    41    13    49 1   
    42    13    50 1   
    43    13    51 1   
    44    16    17 1   
    45    17    18 1   
    46    17    52 1   
    47    18    19 2   
    48    18    20 1   
    49    20    21 1   
    50    21    22 1   
    51    21    53 1   
    52    22    54 1   
    53    22    55 1   
    54    23    56 1   
    55    23    57 1   
    56    24    58 1   
    57    24    59 1   
    58    24    60 1   
    59    25    26 2   
    60    27    28 1   
    61    27    61 1   
    62    27    62 1   
    63    28    29 1   
    64    28    63 1   
    65    28    64 1   
@<TRIPOS>SUBSTRUCTURE
     1 8TL         1 TEMP              0 ****  ****    0 ROOT
