@<TRIPOS>MOLECULE
8TM
   32    34     1     0     0
SMALL
bcc


@<TRIPOS>ATOM
      1 C1          -5.4320    -2.1320    -0.1590 ca         1 8TM      -0.133000
      2 C2          -6.4820    -1.2430     0.1240 ca         1 8TM      -0.099000
      3 C3          -4.1380    -1.6790    -0.2090 ca         1 8TM      -0.097000
      4 C4          -6.2250     0.0820     0.3600 ca         1 8TM      -0.175300
      5 C5           0.4680     1.0090    -0.0700 ca         1 8TM      -0.187000
      6 C6           0.7150    -1.2770    -0.7920 ca         1 8TM      -0.187000
      7 C7           1.8400     1.1690    -0.1780 ca         1 8TM      -0.034500
      8 C8           2.0800    -1.1090    -0.8950 ca         1 8TM      -0.034500
      9 C9          -3.4470     2.2810     0.5270 ca         1 8TM       0.692900
     10 C10         -3.8500    -0.3210     0.0230 ca         1 8TM      -0.298600
     11 C11         -4.9040     0.5700     0.3190 ca         1 8TM       0.440600
     12 C12         -0.1120    -0.2250    -0.3780 ca         1 8TM       0.209600
     13 C13          2.6550     0.1200    -0.5830 ca         1 8TM      -0.056100
     14 C14         -2.5350     0.2670    -0.0040 ca         1 8TM       0.731200
     15 C15          4.9380    -0.0770     0.8830 c3         1 8TM       0.731000
     16 N16         -4.6850     1.8890     0.5700 nb         1 8TM      -0.719000
     17 N17         -2.3610     1.5410     0.2530 nb         1 8TM      -0.796000
     18 N18         -1.4700    -0.5160    -0.3050 nu         1 8TM      -0.736300
     19 F19          4.6190    -1.3270     1.2210 f          1 8TM      -0.220967
     20 F20          4.4290     0.7170     1.8260 f          1 8TM      -0.220967
     21 F21          6.2650     0.0370     0.9190 f          1 8TM      -0.220967
     22 S22          4.3960     0.3640    -0.7710 ss         1 8TM      -0.255000
     23 H1          -5.6430    -3.1780    -0.3370 ha         1 8TM       0.138000
     24 H2          -7.5000    -1.6110     0.1590 ha         1 8TM       0.139000
     25 H3          -3.3560    -2.3960    -0.4240 ha         1 8TM       0.124000
     26 H4          -7.0240     0.7780     0.5830 ha         1 8TM       0.156000
     27 H5          -0.1410     1.8390     0.2430 ha         1 8TM       0.156000
     28 H7           2.2730     2.1330     0.0560 ha         1 8TM       0.150000
     29 H6           0.2820    -2.2390    -1.0400 ha         1 8TM       0.156000
     30 H8           2.6960    -1.9340    -1.2260 ha         1 8TM       0.150000
     31 H9          -3.2520     3.3290     0.7310 h5         1 8TM       0.050100
     32 H18         -1.6840    -1.4700    -0.5440 hn         1 8TM       0.445800
@<TRIPOS>BOND
     1     1     2 ar  
     2     1     3 ar  
     3     1    23 1   
     4     2     4 ar  
     5     2    24 1   
     6     3    10 ar  
     7     3    25 1   
     8     4    11 ar  
     9     4    26 1   
    10     5     7 ar  
    11     5    12 ar  
    12     5    27 1   
    13     6     8 ar  
    14     6    12 ar  
    15     6    29 1   
    16     7    13 ar  
    17     7    28 1   
    18     8    13 ar  
    19     8    30 1   
    20     9    16 ar  
    21     9    17 ar  
    22     9    31 1   
    23    10    11 ar  
    24    10    14 ar  
    25    11    16 ar  
    26    12    18 1   
    27    13    22 1   
    28    14    17 ar  
    29    14    18 1   
    30    15    19 1   
    31    15    20 1   
    32    15    21 1   
    33    15    22 1   
    34    18    32 1   
@<TRIPOS>SUBSTRUCTURE
     1 8TM         1 TEMP              0 ****  ****    0 ROOT
