@<TRIPOS>MOLECULE
8TM
   32    34     1     0     0
SMALL
No Charge or Current Charge


@<TRIPOS>ATOM
      1 C1          -5.6300    -2.0050    -0.2190 ca         1 8TM      -0.115000
      2 C2          -6.6130    -1.0700     0.1410 ca         1 8TM      -0.081000
      3 C3          -4.2830    -1.6160    -0.3010 ca         1 8TM      -0.079000
      4 C4          -6.2480     0.2570     0.4210 ca         1 8TM      -0.092000
      5 C5           0.5310     0.1730     0.5600 ca         1 8TM      -0.169000
      6 C6           0.6260    -1.3030    -1.3550 ca         1 8TM      -0.169000
      7 C7           1.9360     0.2230     0.6000 ca         1 8TM      -0.016500
      8 C8           2.0300    -1.2580    -1.3230 ca         1 8TM      -0.016500
      9 C9          -3.2630     2.2730     0.5190 ca         1 8TM       0.166900
     10 C10         -3.9110    -0.2790    -0.0240 ca         1 8TM      -0.168000
     11 C11         -4.9040     0.6660     0.3430 ca         1 8TM       0.047000
     12 C12         -0.1320    -0.5780    -0.4250 ca         1 8TM       0.348000
     13 C13          2.6970    -0.4910    -0.3500 ca         1 8TM      -0.183000
     14 C14         -2.5700     0.1750    -0.0880 ca         1 8TM       0.402900
     15 C15          5.0920     0.7810     0.8300 c3         1 8TM       0.415000
     16 N16         -4.5660     1.9440     0.6150 nb         1 8TM      -0.193000
     17 N17         -2.2520     1.4540     0.1760 nb         1 8TM      -0.270000
     18 N18         -1.5260    -0.6640    -0.4830 nu         1 8TM      -0.929900
     19 F19          4.7810     0.4550     2.1050 f          1 8TM      -0.099667
     20 F20          4.5690     2.0030     0.5790 f          1 8TM      -0.099667
     21 F21          6.4360     0.9110     0.7760 f          1 8TM      -0.099667
     22 S22          4.5010    -0.4930    -0.3810 ss         1 8TM      -0.176000
     23 H1          -5.9120    -3.0340    -0.4320 ha         1 8TM       0.120000
     24 H2          -7.6560    -1.3730     0.2050 ha         1 8TM       0.121000
     25 H3          -3.5440    -2.3640    -0.5730 ha         1 8TM       0.106000
     26 H4          -7.0160     0.9750     0.7010 ha         1 8TM       0.138000
     27 H5          -0.0350     0.7090     1.3140 ha         1 8TM       0.138000
     28 H7           2.4070     0.8120     1.3800 ha         1 8TM       0.132000
     29 H6           0.1290    -1.8990    -2.1150 ha         1 8TM       0.138000
     30 H8           2.6020    -1.8210    -2.0570 ha         1 8TM       0.132000
     31 H9          -3.0030     3.3070     0.7380 h5         1 8TM       0.050100
     32 H18         -1.8550    -1.4790    -0.9930 hn         1 8TM       0.501000
@<TRIPOS>BOND
     1     1     2 ar  
     2     1     3 ar  
     3     1    23 1   
     4     2     4 ar  
     5     2    24 1   
     6     3    10 ar  
     7     3    25 1   
     8     4    11 ar  
     9     4    26 1   
    10     5     7 ar  
    11     5    12 ar  
    12     5    27 1   
    13     6     8 ar  
    14     6    12 ar  
    15     6    29 1   
    16     7    13 ar  
    17     7    28 1   
    18     8    13 ar  
    19     8    30 1   
    20     9    16 ar  
    21     9    17 ar  
    22     9    31 1   
    23    10    11 ar  
    24    10    14 ar  
    25    11    16 ar  
    26    12    18 1   
    27    13    22 1   
    28    14    17 ar  
    29    14    18 1   
    30    15    19 1   
    31    15    20 1   
    32    15    21 1   
    33    15    22 1   
    34    18    32 1   
@<TRIPOS>SUBSTRUCTURE
     1 8TM         1 TEMP              0 ****  ****    0 ROOT
