@<TRIPOS>MOLECULE
8TN
   58    61     1     0     0
SMALL
bcc


@<TRIPOS>ATOM
      1 C1          -4.1880     1.8830     1.4040 cg         1 8TN       0.257800
      2 C2           1.4080    -2.8130    -2.5120 ca         1 8TN      -0.136000
      3 C3           1.3830    -1.4430    -2.2750 ca         1 8TN      -0.110000
      4 C7          -4.2360     0.6220     0.7810 ca         1 8TN      -0.446600
      5 C8           1.3010    -0.9610    -0.9740 ca         1 8TN      -0.039800
      6 C9           1.2690    -3.2380    -0.1440 ca         1 8TN      -0.085300
      7 C10         -5.2830    -0.2860     1.0460 ca         1 8TN       0.784200
      8 C11         -3.2300     0.2120    -0.1260 ca         1 8TN       0.784200
      9 C12          0.2040     2.6570    -0.6750 cc         1 8TN      -0.250000
     10 C13          3.2720     4.5030     0.5940 cc         1 8TN      -0.151100
     11 C14          1.2780     0.4980    -0.7100 cd         1 8TN      -0.173400
     12 C15          0.1560     1.2700    -0.9010 cc         1 8TN       0.030800
     13 C16          3.5850     3.2050     0.4830 cd         1 8TN       0.004400
     14 C19          4.9180     2.6470     0.8500 c3         1 8TN      -0.025800
     15 C20         -1.4960     1.0860    -2.7870 c3         1 8TN      -0.104100
     16 C21          3.5830    -4.3950     1.2870 c3         1 8TN       0.148600
     17 C22          2.1590    -6.1880     1.9590 c3         1 8TN       0.148600
     18 C24         -1.1470     0.6570    -1.3640 c3         1 8TN       0.271700
     19 N25         -4.1450     2.9210     1.9130 n1         1 8TN      -0.404800
     20 N26         -5.3090    -1.4880     0.4510 nb         1 8TN      -0.833000
     21 C4           1.3560    -3.7050    -1.4540 ca         1 8TN      -0.096000
     22 C5           1.2490    -1.8690     0.0810 ca         1 8TN      -0.095000
     23 C6          -4.3190    -1.7530    -0.3770 ca         1 8TN       0.750900
     24 C17          1.3710     3.2000    -0.2260 cd         1 8TN       0.128600
     25 C18          2.5180     1.0600    -0.2490 c          1 8TN       0.608500
     26 C23          1.2080    -4.2150     1.0010 c3         1 8TN       0.211100
     27 N27         -3.2930    -0.9910    -0.7070 nb         1 8TN      -0.828000
     28 N28          2.4940     2.4500     0.0030 n          1 8TN      -0.079200
     29 N30         -2.1950     1.0050    -0.4160 nu         1 8TN      -0.857900
     30 N31          2.3520    -5.1060     1.0180 n3         1 8TN      -0.713600
     31 O32          3.5430     0.4180    -0.0710 o          1 8TN      -0.605500
     32 S33          1.6460     4.8660     0.1280 ss         1 8TN      -0.112800
     33 H1           1.4720    -3.1810    -3.5290 ha         1 8TN       0.131000
     34 H2           1.4280    -0.7480    -3.1050 ha         1 8TN       0.129000
     35 H3          -0.6440     3.3040    -0.8520 ha         1 8TN       0.155000
     36 H4           3.9280     5.2860     0.9380 h4         1 8TN       0.184000
     37 H6           5.5310     3.4650     1.2230 hc         1 8TN       0.064367
     38 H7           4.8450     1.8950     1.6320 hc         1 8TN       0.064367
     39 H8           5.4290     2.1990     0.0000 hc         1 8TN       0.064367
     40 H9          -2.4130     0.5930    -3.1100 hc         1 8TN       0.048033
     41 H10         -1.6400     2.1640    -2.8610 hc         1 8TN       0.048033
     42 H11         -0.6980     0.8020    -3.4730 hc         1 8TN       0.048033
     43 H12          4.4270    -5.0840     1.2470 h1         1 8TN       0.031700
     44 H13          3.7500    -3.6200     0.5380 h1         1 8TN       0.031700
     45 H14          3.5910    -3.9110     2.2770 h1         1 8TN       0.031700
     46 H15          2.0650    -5.8470     3.0020 h1         1 8TN       0.031700
     47 H16          1.2560    -6.7470     1.7090 h1         1 8TN       0.031700
     48 H17          3.0030    -6.8760     1.9110 h1         1 8TN       0.031700
     49 H18         -1.0560    -0.4260    -1.3440 h1         1 8TN       0.109700
     50 H19         -6.3300     0.8690     2.3890 hn         1 8TN       0.450800
     51 H20         -6.9840    -0.6900     2.0650 hn         1 8TN       0.450800
     52 H21          1.3840    -4.7720    -1.6390 ha         1 8TN       0.142000
     53 H22          1.1900    -1.4980     1.0990 ha         1 8TN       0.131000
     54 H23         -4.3520    -2.7270    -0.8550 h5         1 8TN       0.046100
     55 H24          1.1000    -3.6620     1.9510 h1         1 8TN       0.036700
     56 H25          0.3070    -4.8280     0.9010 h1         1 8TN       0.036700
     57 H26         -2.1920     1.9380    -0.0350 hn         1 8TN       0.447800
     58 N29         -6.2770     0.0020     1.8820 nv         1 8TN      -0.957500
@<TRIPOS>BOND
     1     1     4 1   
     2     1    19 3   
     3     2     3 ar  
     4     2    21 ar  
     5     2    33 1   
     6     3     5 ar  
     7     3    34 1   
     8     4     7 ar  
     9     4     8 ar  
    10     5    11 1   
    11     5    22 ar  
    12     6    21 ar  
    13     6    22 ar  
    14     6    26 1   
    15     7    20 ar  
    16     7    58 1   
    17     8    27 ar  
    18     8    29 1   
    19     9    12 1   
    20     9    24 2   
    21     9    35 1   
    22    10    13 2   
    23    10    32 1   
    24    10    36 1   
    25    11    12 2   
    26    11    25 1   
    27    12    18 1   
    28    13    14 1   
    29    13    28 1   
    30    14    37 1   
    31    14    38 1   
    32    14    39 1   
    33    15    18 1   
    34    15    40 1   
    35    15    41 1   
    36    15    42 1   
    37    16    30 1   
    38    16    43 1   
    39    16    44 1   
    40    16    45 1   
    41    17    30 1   
    42    17    46 1   
    43    17    47 1   
    44    17    48 1   
    45    18    29 1   
    46    18    49 1   
    47    20    23 ar  
    48    21    52 1   
    49    22    53 1   
    50    23    27 ar  
    51    23    54 1   
    52    24    28 1   
    53    24    32 1   
    54    25    28 1   
    55    25    31 2   
    56    26    30 1   
    57    26    55 1   
    58    26    56 1   
    59    29    57 1   
    60    50    58 1   
    61    51    58 1   
@<TRIPOS>SUBSTRUCTURE
     1 8TN         1 TEMP              0 ****  ****    0 ROOT
