@<TRIPOS>MOLECULE
8TN
   58    61     1     0     0
SMALL
No Charge or Current Charge


@<TRIPOS>ATOM
      1 C1          -4.2100     2.2550     1.3260 cg         1 8TN       0.347000
      2 C2           0.7330    -3.1820    -2.2420 ca         1 8TN      -0.118000
      3 C3           0.7390    -1.7980    -2.0040 ca         1 8TN      -0.092000
      4 C7          -4.5580     1.1170     0.5320 ca         1 8TN      -0.316000
      5 C8           1.0940    -1.2850    -0.7370 ca         1 8TN      -0.039800
      6 C9           1.4630    -3.5850     0.0450 ca         1 8TN      -0.085300
      7 C10         -5.8260     0.5300     0.6000 ca         1 8TN       0.455900
      8 C11         -3.6460     0.5350    -0.3610 ca         1 8TN       0.455900
      9 C12          0.2270     2.4450    -0.7120 cc         1 8TN      -0.300000
     10 C13          3.1920     4.3290     0.7350 cc         1 8TN      -0.278000
     11 C14          1.1210     0.1780    -0.4760 cd         1 8TN      -0.173400
     12 C15          0.0690     1.0190    -0.8860 cc         1 8TN       0.030800
     13 C16          3.4440     2.9740     0.7420 cd         1 8TN      -0.046300
     14 C19          4.7520     2.4350     1.2750 c3         1 8TN      -0.025800
     15 C20         -1.5670     1.0270    -2.8520 c3         1 8TN      -0.104100
     16 C21          4.2910    -4.1320     0.9360 c3         1 8TN       0.148600
     17 C22          3.4850    -6.2240     1.9440 c3         1 8TN       0.148600
     18 C24         -1.2880     0.5470    -1.4100 c3         1 8TN       0.271700
     19 N25         -3.9120     3.1780     1.9730 n1         1 8TN      -0.494000
     20 N26         -6.1690    -0.5310    -0.1360 nb         1 8TN      -0.307000
     21 C4           1.0910    -4.0750    -1.2200 ca         1 8TN      -0.078000
     22 C5           1.4660    -2.1950     0.2760 ca         1 8TN      -0.077000
     23 C6          -5.2200    -1.0150    -0.9590 ca         1 8TN       0.224900
     24 C17          1.3800     2.9330    -0.1650 cd         1 8TN      -0.067000
     25 C18          2.4030     0.7440     0.0970 c          1 8TN       0.533000
     26 C23          1.8610    -4.5530     1.1550 c3         1 8TN       0.211100
     27 N27         -3.9720    -0.5340    -1.1070 nb         1 8TN      -0.302000
     28 N28          2.4270     2.1520     0.2380 n          1 8TN       0.022200
     29 N30         -2.3530     1.0290    -0.5090 nu         1 8TN      -0.913100
     30 N31          3.2090    -5.1450     0.9720 n3         1 8TN      -0.713600
     31 O32          3.3610     0.0370     0.3970 o          1 8TN      -0.530000
     32 S33          1.6060     4.6610     0.0680 ss         1 8TN       0.177000
     33 H1           0.4610    -3.5630    -3.2240 ha         1 8TN       0.113000
     34 H2           0.4960    -1.1250    -2.8210 ha         1 8TN       0.111000
     35 H3          -0.5720     3.1210    -1.0090 ha         1 8TN       0.205000
     36 H4           3.8150     5.1480     1.0690 h4         1 8TN       0.166000
     37 H6           5.3940     3.2420     1.6490 hc         1 8TN       0.064367
     38 H7           4.5860     1.7410     2.1070 hc         1 8TN       0.064367
     39 H8           5.3130     1.9080     0.4940 hc         1 8TN       0.064367
     40 H9          -2.4950     0.5890    -3.2360 hc         1 8TN       0.048033
     41 H10         -1.6620     2.1180    -2.8960 hc         1 8TN       0.048033
     42 H11         -0.7520     0.7320    -3.5220 hc         1 8TN       0.048033
     43 H12          5.2650    -4.6110     0.7670 h1         1 8TN       0.031700
     44 H13          4.1310    -3.4110     0.1230 h1         1 8TN       0.031700
     45 H14          4.3400    -3.5780     1.8830 h1         1 8TN       0.031700
     46 H15          3.5080    -5.8320     2.9700 h1         1 8TN       0.031700
     47 H16          2.7120    -7.0030     1.8910 h1         1 8TN       0.031700
     48 H17          4.4540    -6.6980     1.7350 h1         1 8TN       0.031700
     49 H18         -1.3090    -0.5500    -1.4030 h1         1 8TN       0.109700
     50 H19         -6.5750     1.6110     2.1760 hn         1 8TN       0.506000
     51 H20         -7.6280     0.3870     1.5550 hn         1 8TN       0.506000
     52 H21          1.0920    -5.1460    -1.4110 ha         1 8TN       0.124000
     53 H22          1.7430    -1.8230     1.2590 ha         1 8TN       0.113000
     54 H23         -5.4880    -1.8800    -1.5620 h5         1 8TN       0.046100
     55 H24          1.8080    -4.0340     2.1220 h1         1 8TN       0.036700
     56 H25          1.1080    -5.3530     1.1870 h1         1 8TN       0.036700
     57 H26         -2.0900     1.7660     0.1440 hn         1 8TN       0.503000
     58 N29         -6.8140     0.9810     1.4140 nv         1 8TN      -1.067900
@<TRIPOS>BOND
     1     1     4 1   
     2     1    19 3   
     3     2     3 ar  
     4     2    21 ar  
     5     2    33 1   
     6     3     5 ar  
     7     3    34 1   
     8     4     7 ar  
     9     4     8 ar  
    10     5    11 1   
    11     5    22 ar  
    12     6    21 ar  
    13     6    22 ar  
    14     6    26 1   
    15     7    20 ar  
    16     7    58 1   
    17     8    27 ar  
    18     8    29 1   
    19     9    12 1   
    20     9    24 2   
    21     9    35 1   
    22    10    13 2   
    23    10    32 1   
    24    10    36 1   
    25    11    12 2   
    26    11    25 1   
    27    12    18 1   
    28    13    14 1   
    29    13    28 1   
    30    14    37 1   
    31    14    38 1   
    32    14    39 1   
    33    15    18 1   
    34    15    40 1   
    35    15    41 1   
    36    15    42 1   
    37    16    30 1   
    38    16    43 1   
    39    16    44 1   
    40    16    45 1   
    41    17    30 1   
    42    17    46 1   
    43    17    47 1   
    44    17    48 1   
    45    18    29 1   
    46    18    49 1   
    47    20    23 ar  
    48    21    52 1   
    49    22    53 1   
    50    23    27 ar  
    51    23    54 1   
    52    24    28 1   
    53    24    32 1   
    54    25    28 1   
    55    25    31 2   
    56    26    30 1   
    57    26    55 1   
    58    26    56 1   
    59    29    57 1   
    60    50    58 1   
    61    51    58 1   
@<TRIPOS>SUBSTRUCTURE
     1 8TN         1 TEMP              0 ****  ****    0 ROOT
