@<TRIPOS>MOLECULE
8TO
   95    96     1     0     0
SMALL
abcg2


@<TRIPOS>ATOM
      1 CAA         -2.2860     0.7420     3.3550 c3         1 8TO       0.145900
      2 CAC         -0.9260     6.3430    -0.0720 c3         1 8TO      -0.046900
      3 CAD         -4.6980    -1.9750     1.6900 c3         1 8TO      -0.050900
      4 CAE          4.0950     4.5960     0.1400 c3         1 8TO      -0.046900
      5 CAF          0.5630    -0.5800     0.7270 c3         1 8TO      -0.089100
      6 CAG         -4.1110    -4.5430    -0.7540 c3         1 8TO      -0.090100
      7 CAH          7.0610    -3.3730     1.6350 c3         1 8TO       0.150600
      8 CAI          8.1370    -2.3380    -0.2230 c3         1 8TO       0.150600
      9 NAJ         -6.9040     0.5750    -1.6930 nt         1 8TO      -0.601000
     10 OAK         -4.8240    -0.0270    -2.3680 o          1 8TO      -0.535000
     11 OAL          0.4970     3.4410     1.4780 o          1 8TO      -0.571100
     12 OAM          5.4750     2.3030    -0.6740 o          1 8TO      -0.495100
     13 OAN          0.3330     2.0360    -1.4980 o          1 8TO      -0.536100
     14 OAO         -1.5410    -4.2050    -2.0730 oh         1 8TO      -0.709000
     15 CAP         -2.3570     2.8710     0.8620 ce         1 8TO      -0.166000
     16 CAQ         -2.1790     4.2720     0.5280 ce         1 8TO      -0.113000
     17 CAR         -3.5490     2.3120     1.0930 c2         1 8TO      -0.241200
     18 CAS         -3.1970    -2.2640    -0.2990 c2         1 8TO      -0.174200
     19 CAT          5.7130    -0.4540    -0.2520 c3         1 8TO       0.233800
     20 CAU          5.8080    -1.9020     0.2220 c3         1 8TO       0.142800
     21 CAV          1.6080    -0.4690    -1.6040 c3         1 8TO      -0.018200
     22 CAW          0.1170    -2.3470    -1.0290 c3         1 8TO      -0.067400
     23 NAX          4.4000    -0.2510    -0.8350 nu         1 8TO      -0.814200
     24 NAY          1.2040     4.3280    -0.4640 ns         1 8TO      -0.410100
     25 OAZ         -2.5360     0.3210     2.0360 os         1 8TO      -0.447000
     26 OBA          0.6850    -4.2790     0.1980 os         1 8TO      -0.456000
     27 OBB         -5.2920     0.3900    -0.1970 os         1 8TO      -0.472100
     28 CBC         -5.6060     0.2880    -1.4960 c          1 8TO       0.644100
     29 CBD         -1.0080     4.9040     0.3400 cf         1 8TO      -0.181400
     30 CBE         -3.9200    -1.4830     0.5060 c2         1 8TO      -0.139400
     31 CBF          0.2710     4.1590     0.5220 c          1 8TO       0.606300
     32 CBG          3.4190     3.3680    -0.3640 cc         1 8TO      -0.124400
     33 CBH          2.3060     0.8000    -1.2190 cc         1 8TO      -0.311400
     34 CBI          3.6260     0.8470    -0.8650 cd         1 8TO       0.154800
     35 CBJ          2.1180     3.2680    -0.6390 cd         1 8TO      -0.020600
     36 CBK          4.2720     2.1820    -0.6270 c          1 8TO       0.560500
     37 CBL          1.5090     2.0030    -1.1660 c          1 8TO       0.572500
     38 CBM          1.1410    -1.3730    -0.4380 c3         1 8TO      -0.051700
     39 CBN         -2.9680    -3.7400    -0.1280 c3         1 8TO      -0.059500
     40 CBO         -3.6920     0.8580     1.4620 c3         1 8TO       0.204500
     41 CBP         -0.4090    -3.4250    -0.0900 c3         1 8TO       0.179300
     42 CBQ         -1.6050    -4.2200    -0.6630 c3         1 8TO       0.152300
     43 CBR         -3.9800    -0.0050     0.2200 c3         1 8TO       0.238500
     44 NBS          7.1070    -2.2010     0.7860 n3         1 8TO      -0.715600
     45 HAA         -2.0260     1.8030     3.4190 h1         1 8TO       0.034033
     46 HAAA        -3.1510     0.5620     4.0060 h1         1 8TO       0.034033
     47 HAAB        -1.4460     0.1590     3.7280 h1         1 8TO       0.034033
     48 HAB          0.4830    -4.2790     2.2680 h1         1 8TO       0.024700
     49 HABA        -0.2830    -5.6490     1.4480 h1         1 8TO       0.024700
     50 HABB         1.4780    -5.5600     1.5500 h1         1 8TO       0.024700
     51 HAC         -1.9150     6.7980    -0.0810 hc         1 8TO       0.044367
     52 HACA        -0.2910     6.9180     0.6050 hc         1 8TO       0.044367
     53 HAD         -4.7400    -3.0620     1.7370 hc         1 8TO       0.038700
     54 HADA        -4.2700    -1.6250     2.6310 hc         1 8TO       0.038700
     55 HAE          4.6040     4.3980     1.0840 hc         1 8TO       0.057033
     56 HAEA         4.8520     4.9430    -0.5640 hc         1 8TO       0.057033
     57 HAEB         3.3770     5.3970     0.2950 hc         1 8TO       0.057033
     58 HAF         -0.3760    -0.0960     0.4610 hc         1 8TO       0.038033
     59 HAFA         0.3640    -1.2230     1.5850 hc         1 8TO       0.038033
     60 HAFB         1.2490     0.1970     1.0670 hc         1 8TO       0.038033
     61 HAG         -4.2520    -4.2960    -1.8080 hc         1 8TO       0.038033
     62 HAGA        -3.9340    -5.6190    -0.6750 hc         1 8TO       0.038033
     63 HAGB        -5.0520    -4.3260    -0.2490 hc         1 8TO       0.038033
     64 HAH          8.0390    -3.5350     2.0920 h1         1 8TO       0.032867
     65 HAHA         6.3380    -3.2280     2.4380 h1         1 8TO       0.032867
     66 HAHB         6.7880    -4.2930     1.0960 h1         1 8TO       0.032867
     67 HAI          7.9580    -3.1800    -0.9110 h1         1 8TO       0.032867
     68 HAIA         8.2220    -1.4320    -0.8230 h1         1 8TO       0.032867
     69 HAIB         9.1030    -2.5000     0.2560 h1         1 8TO       0.032867
     70 HNAJ        -7.2480     0.6570    -2.6330 hn         1 8TO       0.325000
     71 HNAA        -7.4860     0.9240    -0.9500 hn         1 8TO       0.325000
     72 HOAO        -2.1300    -4.8870    -2.4090 ho         1 8TO       0.501000
     73 HAP         -1.4740     2.2510     0.9320 ha         1 8TO       0.210000
     74 HAQ         -3.0870     4.8530     0.3890 ha         1 8TO       0.170000
     75 HAR         -4.4580     2.9010     1.0310 ha         1 8TO       0.176000
     76 HASA        -2.7500    -1.8040    -1.1750 ha         1 8TO       0.198000
     77 HAT          5.8570     0.1990     0.6060 h1         1 8TO       0.064200
     78 HATA         6.4980    -0.2280    -0.9770 h1         1 8TO       0.064200
     79 HAU          5.0510    -2.0510     0.9970 h1         1 8TO       0.037700
     80 HAUA         5.5500    -2.5870    -0.6060 h1         1 8TO       0.037700
     81 HAV          0.7310    -0.1970    -2.1930 hc         1 8TO       0.050700
     82 HAVA         2.2320    -1.0680    -2.2790 hc         1 8TO       0.050700
     83 HAW         -0.7220    -1.7500    -1.3950 hc         1 8TO       0.061200
     84 HAWA         0.5500    -2.8300    -1.9110 hc         1 8TO       0.061200
     85 HNAX         3.9630    -1.0910    -1.1810 hn         1 8TO       0.492000
     86 HNAY         0.9080     4.7990    -1.3080 hn         1 8TO       0.320500
     87 HBM          2.0020    -1.9400    -0.0690 hc         1 8TO       0.039700
     88 HBN         -2.9510    -3.9700     0.9430 hc         1 8TO       0.050700
     89 HBO         -4.5440     0.7590     2.1560 h1         1 8TO       0.048700
     90 HBP         -0.7520    -2.9540     0.8430 h1         1 8TO       0.048700
     91 HBQ         -1.5050    -5.2570    -0.3080 h1         1 8TO       0.027700
     92 HBR         -3.2480     0.2450    -0.5530 h1         1 8TO       0.089700
     93 H1          -0.5080     6.4630    -1.0750 hc         1 8TO       0.044367
     94 H2          -5.7280    -1.6160     1.6540 hc         1 8TO       0.038700
     95 CAB          0.5740    -4.9660     1.4170 c3         1 8TO       0.143900
@<TRIPOS>BOND
     1     1    25 1   
     2     1    45 1   
     3     1    46 1   
     4     1    47 1   
     5     2    29 1   
     6     2    51 1   
     7     2    52 1   
     8     2    93 1   
     9     3    30 1   
    10     3    53 1   
    11     3    54 1   
    12     3    94 1   
    13     4    32 1   
    14     4    55 1   
    15     4    56 1   
    16     4    57 1   
    17     5    38 1   
    18     5    58 1   
    19     5    59 1   
    20     5    60 1   
    21     6    39 1   
    22     6    61 1   
    23     6    62 1   
    24     6    63 1   
    25     7    44 1   
    26     7    64 1   
    27     7    65 1   
    28     7    66 1   
    29     8    44 1   
    30     8    67 1   
    31     8    68 1   
    32     8    69 1   
    33     9    28 1   
    34     9    70 1   
    35     9    71 1   
    36    10    28 2   
    37    11    31 2   
    38    12    36 2   
    39    13    37 2   
    40    14    42 1   
    41    14    72 1   
    42    15    16 1   
    43    15    17 2   
    44    15    73 1   
    45    16    29 2   
    46    16    74 1   
    47    17    40 1   
    48    17    75 1   
    49    18    30 2   
    50    18    39 1   
    51    18    76 1   
    52    19    20 1   
    53    19    23 1   
    54    19    77 1   
    55    19    78 1   
    56    20    44 1   
    57    20    79 1   
    58    20    80 1   
    59    21    33 1   
    60    21    38 1   
    61    21    81 1   
    62    21    82 1   
    63    22    38 1   
    64    22    41 1   
    65    22    83 1   
    66    22    84 1   
    67    23    34 1   
    68    23    85 1   
    69    24    31 1   
    70    24    35 1   
    71    24    86 1   
    72    25    40 1   
    73    26    41 1   
    74    26    95 1   
    75    27    28 1   
    76    27    43 1   
    77    29    31 1   
    78    30    43 1   
    79    32    35 2   
    80    32    36 1   
    81    33    34 2   
    82    33    37 1   
    83    34    36 1   
    84    35    37 1   
    85    38    87 1   
    86    39    42 1   
    87    39    88 1   
    88    40    43 1   
    89    40    89 1   
    90    41    42 1   
    91    41    90 1   
    92    42    91 1   
    93    43    92 1   
    94    48    95 1   
    95    49    95 1   
    96    50    95 1   
@<TRIPOS>SUBSTRUCTURE
     1 8TO         1 TEMP              0 ****  ****    0 ROOT
