@<TRIPOS>MOLECULE
8TO
   95    96     1     0     0
SMALL
No Charge or Current Charge


@<TRIPOS>ATOM
      1 CAA         -3.3810     1.1310     3.8070 c3         1 8TO       0.145900
      2 CAC         -0.6400     5.6810    -0.5310 c3         1 8TO      -0.046900
      3 CAD         -5.5600    -1.8840     1.6800 c3         1 8TO      -0.050900
      4 CAE          3.9990     4.3800     0.0780 c3         1 8TO      -0.046900
      5 CAF          1.5060    -1.2630     0.9000 c3         1 8TO      -0.089100
      6 CAG         -4.6000    -4.1000    -0.8510 c3         1 8TO      -0.090100
      7 CAH          9.0820    -3.3190     0.8600 c3         1 8TO       0.150600
      8 CAI          9.6600    -1.1310    -0.0920 c3         1 8TO       0.150600
      9 NAJ         -8.1730     0.3700    -1.1310 nt         1 8TO      -0.601000
     10 OAK         -6.1710    -0.1740    -2.0090 o          1 8TO      -0.535000
     11 OAL         -0.0380     2.2460     0.7530 o          1 8TO      -0.571100
     12 OAM          5.8220     2.3030    -0.0250 o          1 8TO      -0.495100
     13 OAN          0.8870     0.9670    -1.7000 o          1 8TO      -0.536100
     14 OAO         -2.1770    -3.0380    -2.3180 oh         1 8TO      -0.709000
     15 CAP         -2.9120     2.7470     0.7430 ce         1 8TO      -0.166000
     16 CAQ         -2.3390     4.0390     0.3260 ce         1 8TO      -0.113000
     17 CAR         -4.1220     2.5670     1.3140 c2         1 8TO      -0.241200
     18 CAS         -3.8070    -1.7950    -0.1770 c2         1 8TO      -0.174200
     19 CAT          6.6330    -0.4500    -0.0540 c3         1 8TO       0.233800
     20 CAU          7.2810    -1.8620     0.0160 c3         1 8TO       0.142800
     21 CAV          2.5710    -1.2380    -1.4970 c3         1 8TO      -0.018200
     22 CAW          0.2600    -2.3370    -1.1160 c3         1 8TO      -0.067400
     23 NAX          5.2510    -0.5050    -0.5870 nu         1 8TO      -0.814200
     24 NAY          1.2630     3.5280    -0.5660 ns         1 8TO      -0.410100
     25 OAZ         -3.6350     0.5520     2.5130 os         1 8TO      -0.447000
     26 OBA         -0.1380    -4.1400     0.4410 os         1 8TO      -0.456000
     27 OBB         -6.4060     0.5000     0.1820 os         1 8TO      -0.472100
     28 CBC         -6.8500     0.1780    -1.0620 c          1 8TO       0.644100
     29 CBD         -1.0330     4.2950    -0.0280 cf         1 8TO      -0.181400
     30 CBE         -4.7130    -1.1840     0.6180 c2         1 8TO      -0.139400
     31 CBF          0.0710     3.2650     0.0860 c          1 8TO       0.606300
     32 CBG          3.5870     2.9840    -0.3710 cc         1 8TO      -0.124400
     33 CBH          3.0380     0.1740    -1.1060 cc         1 8TO      -0.311400
     34 CBI          4.3140     0.5250    -0.6820 cd         1 8TO       0.154800
     35 CBJ          2.3020     2.6050    -0.7200 cd         1 8TO      -0.020600
     36 CBK          4.6810     1.9700    -0.3390 c          1 8TO       0.560500
     37 CBL          1.9840     1.2190    -1.2110 c          1 8TO       0.572500
     38 CBM          1.6390    -1.9800    -0.4710 c3         1 8TO      -0.051700
     39 CBN         -3.4410    -3.2790    -0.2280 c3         1 8TO      -0.059500
     40 CBO         -4.6600     1.2030     1.7270 c3         1 8TO       0.204500
     41 CBP         -0.8050    -3.0260    -0.2080 c3         1 8TO       0.179300
     42 CBQ         -2.0890    -3.5550    -0.9730 c3         1 8TO       0.152300
     43 CBR         -5.0030     0.3200     0.4770 c3         1 8TO       0.238500
     44 NBS          8.6380    -1.9260     0.6320 n3         1 8TO      -0.715600
     45 HAA         -3.0110     2.1600     3.7150 h1         1 8TO       0.034033
     46 HAAA        -4.2950     1.1420     4.4150 h1         1 8TO       0.034033
     47 HAAB        -2.6230     0.5460     4.3420 h1         1 8TO       0.034033
     48 HAB         -1.1290    -4.0040     2.2850 h1         1 8TO       0.024700
     49 HABA        -1.7340    -5.2810     1.1960 h1         1 8TO       0.024700
     50 HABB        -0.1870    -5.4890     2.0340 h1         1 8TO       0.024700
     51 HAC         -1.4510     6.4090    -0.4050 hc         1 8TO       0.044367
     52 HACA         0.2260     6.0760     0.0140 hc         1 8TO       0.044367
     53 HAD         -5.2670    -2.9280     1.8330 hc         1 8TO       0.038700
     54 HADA        -5.4740    -1.3910     2.6540 hc         1 8TO       0.038700
     55 HAE          4.2770     4.3810     1.1390 hc         1 8TO       0.057033
     56 HAEA         4.8630     4.7390    -0.4950 hc         1 8TO       0.057033
     57 HAEB         3.2060     5.1250    -0.0510 hc         1 8TO       0.057033
     58 HAF          0.9030    -0.3530     0.8170 hc         1 8TO       0.038033
     59 HAFA         1.0250    -1.9160     1.6370 hc         1 8TO       0.038033
     60 HAFB         2.4910    -0.9960     1.3000 hc         1 8TO       0.038033
     61 HAG         -4.8310    -3.7560    -1.8660 hc         1 8TO       0.038033
     62 HAGA        -4.3410    -5.1650    -0.8970 hc         1 8TO       0.038033
     63 HAGB        -5.5140    -4.0080    -0.2560 hc         1 8TO       0.038033
     64 HAH         10.0440    -3.3390     1.3890 h1         1 8TO       0.032867
     65 HAHA         8.3520    -3.8660     1.4710 h1         1 8TO       0.032867
     66 HAHB         9.2020    -3.8530    -0.0930 h1         1 8TO       0.032867
     67 HAI          9.7780    -1.4900    -1.1230 h1         1 8TO       0.032867
     68 HAIA         9.3880    -0.0680    -0.1230 h1         1 8TO       0.032867
     69 HAIB        10.6340    -1.2060     0.4100 h1         1 8TO       0.032867
     70 HNAJ        -8.6570     0.1960    -1.9970 hn         1 8TO       0.325000
     71 HNAA        -8.6680     0.6830    -0.3110 hn         1 8TO       0.325000
     72 HOAO        -2.9510    -3.4730    -2.7400 ho         1 8TO       0.501000
     73 HAP         -2.3160     1.8550     0.5560 ha         1 8TO       0.210000
     74 HAQ         -3.0550     4.8600     0.2600 ha         1 8TO       0.170000
     75 HAR         -4.7860     3.4060     1.5230 ha         1 8TO       0.176000
     76 HASA        -3.2700    -1.1920    -0.9120 ha         1 8TO       0.198000
     77 HAT          6.6290    -0.0210     0.9570 h1         1 8TO       0.064200
     78 HATA         7.2490     0.1950    -0.6950 h1         1 8TO       0.064200
     79 HAU          6.6000    -2.5030     0.5930 h1         1 8TO       0.037700
     80 HAUA         7.3180    -2.2750    -1.0020 h1         1 8TO       0.037700
     81 HAV          2.0690    -1.1850    -2.4720 hc         1 8TO       0.050700
     82 HAVA         3.4230    -1.8940    -1.7070 hc         1 8TO       0.050700
     83 HAW         -0.1900    -1.4200    -1.5120 hc         1 8TO       0.061200
     84 HAWA         0.4510    -2.9850    -1.9800 hc         1 8TO       0.061200
     85 HNAX         4.8890    -1.4310    -0.8130 hn         1 8TO       0.492000
     86 HNAY         1.3800     4.4820    -0.8810 hn         1 8TO       0.320500
     87 HBM          2.1330    -2.9360    -0.2560 hc         1 8TO       0.039700
     88 HBN         -3.3210    -3.6390     0.8000 hc         1 8TO       0.050700
     89 HBO         -5.5710     1.3250     2.3290 h1         1 8TO       0.048700
     90 HBP         -1.1230    -2.2920     0.5450 h1         1 8TO       0.048700
     91 HBQ         -1.9800    -4.6460    -1.0450 h1         1 8TO       0.027700
     92 HBR         -4.4000     0.7110    -0.3540 h1         1 8TO       0.089700
     93 H1          -0.3890     5.6600    -1.5990 hc         1 8TO       0.044367
     94 H2          -6.6210    -1.8840     1.4030 hc         1 8TO       0.038700
     95 CAB         -0.8350    -4.7550     1.5400 c3         1 8TO       0.143900
@<TRIPOS>BOND
     1     1    25 1   
     2     1    45 1   
     3     1    46 1   
     4     1    47 1   
     5     2    29 1   
     6     2    51 1   
     7     2    52 1   
     8     2    93 1   
     9     3    30 1   
    10     3    53 1   
    11     3    54 1   
    12     3    94 1   
    13     4    32 1   
    14     4    55 1   
    15     4    56 1   
    16     4    57 1   
    17     5    38 1   
    18     5    58 1   
    19     5    59 1   
    20     5    60 1   
    21     6    39 1   
    22     6    61 1   
    23     6    62 1   
    24     6    63 1   
    25     7    44 1   
    26     7    64 1   
    27     7    65 1   
    28     7    66 1   
    29     8    44 1   
    30     8    67 1   
    31     8    68 1   
    32     8    69 1   
    33     9    28 1   
    34     9    70 1   
    35     9    71 1   
    36    10    28 2   
    37    11    31 2   
    38    12    36 2   
    39    13    37 2   
    40    14    42 1   
    41    14    72 1   
    42    15    16 1   
    43    15    17 2   
    44    15    73 1   
    45    16    29 2   
    46    16    74 1   
    47    17    40 1   
    48    17    75 1   
    49    18    30 2   
    50    18    39 1   
    51    18    76 1   
    52    19    20 1   
    53    19    23 1   
    54    19    77 1   
    55    19    78 1   
    56    20    44 1   
    57    20    79 1   
    58    20    80 1   
    59    21    33 1   
    60    21    38 1   
    61    21    81 1   
    62    21    82 1   
    63    22    38 1   
    64    22    41 1   
    65    22    83 1   
    66    22    84 1   
    67    23    34 1   
    68    23    85 1   
    69    24    31 1   
    70    24    35 1   
    71    24    86 1   
    72    25    40 1   
    73    26    41 1   
    74    26    95 1   
    75    27    28 1   
    76    27    43 1   
    77    29    31 1   
    78    30    43 1   
    79    32    35 2   
    80    32    36 1   
    81    33    34 2   
    82    33    37 1   
    83    34    36 1   
    84    35    37 1   
    85    38    87 1   
    86    39    42 1   
    87    39    88 1   
    88    40    43 1   
    89    40    89 1   
    90    41    42 1   
    91    41    90 1   
    92    42    91 1   
    93    43    92 1   
    94    48    95 1   
    95    49    95 1   
    96    50    95 1   
@<TRIPOS>SUBSTRUCTURE
     1 8TO         1 TEMP              0 ****  ****    0 ROOT
