@<TRIPOS>MOLECULE
8TP
   27    27     1     0     0
SMALL
bcc


@<TRIPOS>ATOM
      1 N1          -2.8620     0.3690    -0.0370 ns         1 8TP      -0.579900
      2 C4          -0.4410     0.2140    -0.0210 c3         1 8TP       0.191800
      3 C5           1.9680    -0.2720    -0.0820 ca         1 8TP       0.169600
      4 C6           2.9960    -1.2230     0.0300 ca         1 8TP      -0.198500
      5 C7           4.3200    -0.8310     0.0960 ca         1 8TP      -0.087500
      6 C8           4.6700     0.5160     0.0500 ca         1 8TP      -0.175000
      7 C10          2.3240     1.0820    -0.1160 ca         1 8TP      -0.198500
      8 C1          -5.1770     1.0420     0.0910 c3         1 8TP      -0.178100
      9 C2          -4.1400    -0.0380    -0.0870 c          1 8TP       0.667100
     10 C3          -1.7500    -0.5390    -0.1980 c3         1 8TP       0.093000
     11 N2           0.6630    -0.6970    -0.1840 nu         1 8TP      -0.753600
     12 C9           3.6600     1.4600    -0.0560 ca         1 8TP      -0.087500
     13 O1          -4.4460    -1.2100    -0.2650 o          1 8TP      -0.604100
     14 H1          -2.6690     1.3470     0.1050 hn         1 8TP       0.313500
     15 H2          -0.3780     1.0000    -0.7790 h1         1 8TP       0.039200
     16 H3          -0.4330     0.7130     0.9580 h1         1 8TP       0.039200
     17 H4           2.7450    -2.2770     0.0640 ha         1 8TP       0.127000
     18 H5           5.0900    -1.5880     0.1830 ha         1 8TP       0.127000
     19 H6           5.7080     0.8170     0.1000 ha         1 8TP       0.132000
     20 H7           1.5670     1.8510    -0.1840 ha         1 8TP       0.127000
     21 H8          -5.8350     1.0580    -0.7770 hc         1 8TP       0.060367
     22 H9          -5.7930     0.8170     0.9620 hc         1 8TP       0.060367
     23 H10         -4.7540     2.0370     0.2200 hc         1 8TP       0.060367
     24 H11         -1.8150    -1.3430     0.5410 h1         1 8TP       0.058200
     25 H12         -1.7730    -1.0060    -1.1860 h1         1 8TP       0.058200
     26 H13          0.4990    -1.6220     0.1850 hn         1 8TP       0.412800
     27 H14          3.9040     2.5150    -0.0870 ha         1 8TP       0.127000
@<TRIPOS>BOND
     1     1     9 1   
     2     1    10 1   
     3     1    14 1   
     4     2    10 1   
     5     2    11 1   
     6     2    15 1   
     7     2    16 1   
     8     3     4 ar  
     9     3     7 ar  
    10     3    11 1   
    11     4     5 ar  
    12     4    17 1   
    13     5     6 ar  
    14     5    18 1   
    15     6    12 ar  
    16     6    19 1   
    17     7    12 ar  
    18     7    20 1   
    19     8     9 1   
    20     8    21 1   
    21     8    22 1   
    22     8    23 1   
    23     9    13 2   
    24    10    24 1   
    25    10    25 1   
    26    11    26 1   
    27    12    27 1   
@<TRIPOS>SUBSTRUCTURE
     1 8TP         1 TEMP              0 ****  ****    0 ROOT
