@<TRIPOS>MOLECULE
8TP
   27    27     1     0     0
SMALL
No Charge or Current Charge


@<TRIPOS>ATOM
      1 N1          -3.0940    -0.0060     0.5470 ns         1 8TP      -0.512900
      2 C4          -0.5940     0.0660     0.2230 c3         1 8TP       0.191800
      3 C5           1.9520    -0.2840     0.0690 ca         1 8TP       0.308000
      4 C6           3.0100    -1.2040     0.1560 ca         1 8TP      -0.180500
      5 C7           4.3330    -0.7930    -0.0820 ca         1 8TP      -0.069500
      6 C8           4.6020     0.5460    -0.4090 ca         1 8TP      -0.157000
      7 C10          2.2270     1.0570    -0.2590 ca         1 8TP      -0.180500
      8 C1          -4.9790     1.2680    -0.3450 c3         1 8TP      -0.178100
      9 C2          -3.7060     0.4690    -0.5910 c          1 8TP       0.600100
     10 C3          -1.8450    -0.7820     0.5670 c3         1 8TP       0.093000
     11 N2           0.6500    -0.7260     0.3120 nu         1 8TP      -0.947200
     12 C9           3.5490     1.4730    -0.4970 ca         1 8TP      -0.069500
     13 O1          -3.2650     0.2620    -1.7110 o          1 8TP      -0.604100
     14 H1          -3.5410     0.2160     1.4300 hn         1 8TP       0.313500
     15 H2          -0.7020     0.4720    -0.7920 h1         1 8TP       0.039200
     16 H3          -0.5420     0.9150     0.9190 h1         1 8TP       0.039200
     17 H4           2.8090    -2.2420     0.4080 ha         1 8TP       0.109000
     18 H5           5.1480    -1.5120    -0.0130 ha         1 8TP       0.109000
     19 H6           5.6250     0.8660    -0.5930 ha         1 8TP       0.114000
     20 H7           1.4240     1.7840    -0.3300 ha         1 8TP       0.109000
     21 H8          -5.4380     1.6260    -1.2740 hc         1 8TP       0.060367
     22 H9          -5.6760     0.6590     0.2420 hc         1 8TP       0.060367
     23 H10         -4.7560     2.0930     0.3410 hc         1 8TP       0.060367
     24 H11         -1.7240    -1.2120     1.5700 h1         1 8TP       0.058200
     25 H12         -1.9320    -1.6110    -0.1480 h1         1 8TP       0.058200
     26 H13          0.5580    -1.7180     0.5380 hn         1 8TP       0.468000
     27 H14          3.7570     2.5100    -0.7500 ha         1 8TP       0.109000
@<TRIPOS>BOND
     1     1     9 1   
     2     1    10 1   
     3     1    14 1   
     4     2    10 1   
     5     2    11 1   
     6     2    15 1   
     7     2    16 1   
     8     3     4 ar  
     9     3     7 ar  
    10     3    11 1   
    11     4     5 ar  
    12     4    17 1   
    13     5     6 ar  
    14     5    18 1   
    15     6    12 ar  
    16     6    19 1   
    17     7    12 ar  
    18     7    20 1   
    19     8     9 1   
    20     8    21 1   
    21     8    22 1   
    22     8    23 1   
    23     9    13 2   
    24    10    24 1   
    25    10    25 1   
    26    11    26 1   
    27    12    27 1   
@<TRIPOS>SUBSTRUCTURE
     1 8TP         1 TEMP              0 ****  ****    0 ROOT
