@<TRIPOS>MOLECULE
8TQ
   32    34     1     0     0
SMALL
bcc


@<TRIPOS>ATOM
      1 N2          -2.4850     1.3140     0.8220 n7         1 8TQ      -0.786200
      2 C22         -3.6760     1.0160     0.0180 c5         1 8TQ       0.157800
      3 C23         -3.5040    -0.4210    -0.4600 c5         1 8TQ      -0.105400
      4 C8          -1.9900    -0.5020    -0.6380 c5         1 8TQ      -0.047500
      5 C21         -1.4940     0.2810     0.5890 c5         1 8TQ       0.100500
      6 C25         -0.1090     0.8240     0.3190 c          1 8TQ       0.711500
      7 O7           0.1250     2.0060     0.1130 o          1 8TQ      -0.605500
      8 C7          -1.4310    -1.8820    -0.7310 c2         1 8TQ      -0.137200
      9 C6          -0.2780    -2.3020    -0.2220 c2         1 8TQ      -0.189200
     10 C5           0.7950    -1.5400     0.5030 c5         1 8TQ       0.158900
     11 C4           2.1750    -2.0170     0.0360 c5         1 8TQ      -0.092400
     12 C3           3.1030    -0.8630     0.3710 c5         1 8TQ      -0.079400
     13 C2           2.2430     0.3830     0.1080 c5         1 8TQ      -0.013300
     14 N1           0.8800    -0.0930     0.2740 n          1 8TQ      -0.490800
     15 C1           2.4410     0.9300    -1.2870 c          1 8TQ       0.581900
     16 O2           3.3040     1.7170    -1.5770 o          1 8TQ      -0.507100
     17 H1          -2.7190     1.3540     1.8020 hn         1 8TQ       0.362800
     18 H27         -4.5850     1.1630     0.6010 h1         1 8TQ       0.053700
     19 H26         -3.7320     1.6900    -0.8430 h1         1 8TQ       0.053700
     20 H28         -3.8260    -1.1270     0.3120 hc         1 8TQ       0.052200
     21 H29         -4.0510    -0.6470    -1.3760 hc         1 8TQ       0.052200
     22 H30         -1.7310     0.0550    -1.5490 hc         1 8TQ       0.083700
     23 H31         -1.4350    -0.4150     1.4360 h1         1 8TQ       0.046700
     24 H32         -2.0370    -2.6070    -1.2640 ha         1 8TQ       0.128000
     25 H33         -0.0370    -3.3550    -0.3300 ha         1 8TQ       0.128000
     26 H34          0.7010    -1.7330     1.5800 h1         1 8TQ       0.056700
     27 HZT          2.4590    -2.9510     0.5190 hc         1 8TQ       0.057700
     28 H35          2.1550    -2.1940    -1.0420 hc         1 8TQ       0.057700
     29 H36          3.3820    -0.8830     1.4250 hc         1 8TQ       0.061700
     30 HZU          4.0240    -0.8680    -0.2120 hc         1 8TQ       0.061700
     31 H37          2.4810     1.1750     0.8220 h1         1 8TQ       0.093700
     32 H3           1.7470     0.5230    -2.0470 h4         1 8TQ      -0.005800
@<TRIPOS>BOND
     1     1     2 1   
     2     1     5 1   
     3     1    17 1   
     4     2     3 1   
     5     2    18 1   
     6     2    19 1   
     7     3     4 1   
     8     3    20 1   
     9     3    21 1   
    10     4     5 1   
    11     4     8 1   
    12     4    22 1   
    13     5     6 1   
    14     5    23 1   
    15     6     7 2   
    16     6    14 1   
    17     8     9 2   
    18     8    24 1   
    19     9    10 1   
    20     9    25 1   
    21    10    11 1   
    22    10    14 1   
    23    10    26 1   
    24    11    12 1   
    25    11    27 1   
    26    11    28 1   
    27    12    13 1   
    28    12    29 1   
    29    12    30 1   
    30    13    14 1   
    31    13    15 1   
    32    13    31 1   
    33    15    16 2   
    34    15    32 1   
@<TRIPOS>SUBSTRUCTURE
     1 8TQ         1 TEMP              0 ****  ****    0 ROOT
