@<TRIPOS>MOLECULE
8TQ
   32    34     1     0     0
SMALL
No Charge or Current Charge


@<TRIPOS>ATOM
      1 N2          -2.6860     1.1470     1.1580 n7         1 8TQ      -0.841400
      2 C22         -3.6710     1.0660     0.0510 c5         1 8TQ       0.157800
      3 C23         -3.4750    -0.3620    -0.5000 c5         1 8TQ      -0.105400
      4 C8          -1.9320    -0.3700    -0.6080 c5         1 8TQ      -0.047500
      5 C21         -1.5410     0.2350     0.7700 c5         1 8TQ       0.100500
      6 C25         -0.1310     0.9100     0.5810 c          1 8TQ       0.569000
      7 O7           0.1180     2.1080     0.6730 o          1 8TQ      -0.530000
      8 C7          -1.4280    -1.7980    -0.7870 c2         1 8TQ      -0.187200
      9 C6          -0.2540    -2.2600    -0.3050 c2         1 8TQ      -0.239200
     10 C5           0.7740    -1.4770     0.5310 c5         1 8TQ       0.158900
     11 C4           2.1740    -1.9920     0.0920 c5         1 8TQ      -0.092400
     12 C3           3.0870    -0.7930     0.4350 c5         1 8TQ      -0.079400
     13 C2           2.2540     0.4100    -0.0930 c5         1 8TQ      -0.013300
     14 N1           0.8550    -0.0310     0.1890 n          1 8TQ      -0.423800
     15 C1           2.5410     0.6500    -1.6010 c          1 8TQ       0.581900
     16 O2           2.9060     1.7130    -2.0960 o          1 8TQ      -0.507100
     17 H1          -3.1230     0.7600     2.0050 hn         1 8TQ       0.418000
     18 H27         -4.6990     1.2470     0.3990 h1         1 8TQ       0.053700
     19 H26         -3.4420     1.8130    -0.7230 h1         1 8TQ       0.053700
     20 H28         -3.8510    -1.1220     0.1950 hc         1 8TQ       0.052200
     21 H29         -3.9700    -0.5120    -1.4660 hc         1 8TQ       0.052200
     22 H30         -1.6040     0.2640    -1.4420 hc         1 8TQ       0.083700
     23 H31         -1.4500    -0.5490     1.5350 h1         1 8TQ       0.046700
     24 H32         -2.0500    -2.4920    -1.3580 ha         1 8TQ       0.178000
     25 H33         -0.0230    -3.3070    -0.5100 ha         1 8TQ       0.178000
     26 H34          0.6220    -1.6140     1.6110 h1         1 8TQ       0.056700
     27 HZT          2.4640    -2.9050     0.6240 hc         1 8TQ       0.057700
     28 H35          2.2120    -2.2200    -0.9800 hc         1 8TQ       0.057700
     29 H36          3.2370    -0.7170     1.5190 hc         1 8TQ       0.061700
     30 HZU          4.0810    -0.8650    -0.0230 hc         1 8TQ       0.061700
     31 H37          2.5210     1.3320     0.4420 h1         1 8TQ       0.093700
     32 H3           2.3820    -0.2390    -2.2500 h4         1 8TQ      -0.005800
@<TRIPOS>BOND
     1     1     2 1   
     2     1     5 1   
     3     1    17 1   
     4     2     3 1   
     5     2    18 1   
     6     2    19 1   
     7     3     4 1   
     8     3    20 1   
     9     3    21 1   
    10     4     5 1   
    11     4     8 1   
    12     4    22 1   
    13     5     6 1   
    14     5    23 1   
    15     6     7 2   
    16     6    14 1   
    17     8     9 2   
    18     8    24 1   
    19     9    10 1   
    20     9    25 1   
    21    10    11 1   
    22    10    14 1   
    23    10    26 1   
    24    11    12 1   
    25    11    27 1   
    26    11    28 1   
    27    12    13 1   
    28    12    29 1   
    29    12    30 1   
    30    13    14 1   
    31    13    15 1   
    32    13    31 1   
    33    15    16 2   
    34    15    32 1   
@<TRIPOS>SUBSTRUCTURE
     1 8TQ         1 TEMP              0 ****  ****    0 ROOT
