@<TRIPOS>MOLECULE
8TR
    3     2     1     0     0
SMALL
bcc


@<TRIPOS>ATOM
      1 O1          -1.1320     0.1310    -0.0310 oh         1 8TR      -0.442600
      2 CL1          0.5340    -0.0790    -0.0420 cl         1 8TR       0.028600
      3 H1          -1.4910    -0.7660     0.0430 ho         1 8TR       0.414000
@<TRIPOS>BOND
     1     1     2 1   
     2     1     3 1   
@<TRIPOS>SUBSTRUCTURE
     1 8TR         1 TEMP              0 ****  ****    0 ROOT
