@<TRIPOS>MOLECULE
8TR
    3     2     1     0     0
SMALL
No Charge or Current Charge


@<TRIPOS>ATOM
      1 O1          -1.1560     0.1440    -0.0320 oh         1 8TR      -0.481600
      2 Cl1          0.5600    -0.0820    -0.0420 cl         1 8TR       0.028600
      3 H1          -1.4930    -0.7770     0.0440 ho         1 8TR       0.453000
@<TRIPOS>BOND
     1     1     2 1   
     2     1     3 1   
@<TRIPOS>SUBSTRUCTURE
     1 8TR         1 TEMP              0 ****  ****    0 ROOT
