@<TRIPOS>MOLECULE
8TS
   31    32     1     0     0
SMALL
abcg2


@<TRIPOS>ATOM
      1 N1           2.8350    -0.0310    -0.4110 n          1 8TS      -0.420800
      2 N3          -6.1340     0.2810    -1.2230 n1         1 8TS      -0.462000
      3 C4           1.0850    -1.2510     0.7720 c6         1 8TS       0.196800
      4 C5           1.0300     1.1500     0.7330 c6         1 8TS       0.196800
      5 C6           2.0120     1.1630    -0.4330 c6         1 8TS       0.070500
      6 C7          -1.0470    -0.0840     0.3030 ca         1 8TS       0.650900
      7 C8          -1.7810    -1.2840     0.1220 ca         1 8TS      -0.241000
      8 C10         -3.6840     0.0430    -0.4810 ca         1 8TS      -0.150000
      9 C1           4.8970     1.2860    -0.3530 c3         1 8TS      -0.176100
     10 C2           4.1880    -0.0480    -0.3510 c          1 8TS       0.610100
     11 C3           2.0670    -1.2620    -0.3940 c6         1 8TS       0.070500
     12 N2           0.2430    -0.0720     0.7090 nh         1 8TS      -0.772300
     13 C9          -3.0900    -1.2100    -0.2690 ca         1 8TS       0.008000
     14 C11         -5.0340     0.1720    -0.8910 cg         1 8TS       0.339000
     15 C12         -2.8890     1.1660    -0.2720 ca         1 8TS       0.439900
     16 N4          -1.6290     1.1060     0.1000 nb         1 8TS      -0.768000
     17 O1           4.8200    -1.0950    -0.3000 o          1 8TS      -0.601100
     18 H1           0.5010    -2.1660     0.7690 h1         1 8TS       0.070700
     19 H2           1.6370    -1.2310     1.7160 h1         1 8TS       0.070700
     20 H3           1.5810     1.1860     1.6760 h1         1 8TS       0.070700
     21 H4           0.3790     2.0170     0.6860 h1         1 8TS       0.070700
     22 H5           2.6220     2.0610    -0.3780 h1         1 8TS       0.064950
     23 H6           1.4560     1.2030    -1.3760 h1         1 8TS       0.064950
     24 H7          -1.3430    -2.2560     0.2840 ha         1 8TS       0.127000
     25 H8           4.6510     1.8780    -1.2340 hc         1 8TS       0.061700
     26 H9           4.6380     1.8820     0.5230 hc         1 8TS       0.061700
     27 H10          5.9700     1.1150    -0.3430 hc         1 8TS       0.061700
     28 H11          1.5140    -1.3570    -1.3350 h1         1 8TS       0.064950
     29 H12          2.7370    -2.1120    -0.3100 h1         1 8TS       0.064950
     30 H13         -3.6590    -2.1180    -0.4150 ha         1 8TS       0.127000
     31 H14         -3.3010     2.1580    -0.4200 h4         1 8TS       0.027100
@<TRIPOS>BOND
     1     1     5 1   
     2     1    10 1   
     3     1    11 1   
     4     2    14 3   
     5     3    11 1   
     6     3    12 1   
     7     3    18 1   
     8     3    19 1   
     9     4     5 1   
    10     4    12 1   
    11     4    20 1   
    12     4    21 1   
    13     5    22 1   
    14     5    23 1   
    15     6     7 ar  
    16     6    12 1   
    17     6    16 ar  
    18     7    13 ar  
    19     7    24 1   
    20     8    13 ar  
    21     8    14 1   
    22     8    15 ar  
    23     9    10 1   
    24     9    25 1   
    25     9    26 1   
    26     9    27 1   
    27    10    17 2   
    28    11    28 1   
    29    11    29 1   
    30    13    30 1   
    31    15    16 ar  
    32    15    31 1   
@<TRIPOS>SUBSTRUCTURE
     1 8TS         1 TEMP              0 ****  ****    0 ROOT
