@<TRIPOS>MOLECULE
8TS
   31    32     1     0     0
SMALL
No Charge or Current Charge


@<TRIPOS>ATOM
      1 N1           3.1260    -0.0010    -0.1170 n          1 8TS      -0.420800
      2 N3          -6.5530     0.1950    -0.5820 n1         1 8TS      -0.462000
      3 C4           0.9470    -1.3440     0.2150 c6         1 8TS       0.196800
      4 C5           0.8710     1.1040     0.4700 c6         1 8TS       0.196800
      5 C6           2.2900     1.2440    -0.1450 c6         1 8TS       0.070500
      6 C7          -1.2410    -0.1310    -0.0920 ca         1 8TS       0.650900
      7 C8          -2.0120    -1.1890     0.4220 ca         1 8TS      -0.241000
      8 C10         -3.9790    -0.0210    -0.3150 ca         1 8TS      -0.150000
      9 C1           5.2730     1.3510    -0.1260 c3         1 8TS      -0.176100
     10 C2           4.5140     0.0500    -0.3900 c          1 8TS       0.610100
     11 C3           2.3690    -1.2600    -0.4040 c6         1 8TS       0.070500
     12 N2           0.1630    -0.1060    -0.0320 nh         1 8TS      -0.772300
     13 C9          -3.4100    -1.1390     0.3120 ca         1 8TS       0.008000
     14 C11         -5.3950     0.1030    -0.4650 cg         1 8TS       0.339000
     15 C12         -3.1340     0.9890    -0.7970 ca         1 8TS       0.439900
     16 N4          -1.7870     0.9410    -0.6900 nb         1 8TS      -0.768000
     17 O1           5.1170    -0.9450    -0.7730 o          1 8TS      -0.601100
     18 H1           0.4440    -2.2220    -0.2180 h1         1 8TS       0.070700
     19 H2           1.0410    -1.5200     1.2980 h1         1 8TS       0.070700
     20 H3           0.9680     1.0470     1.5640 h1         1 8TS       0.070700
     21 H4           0.3130     2.0250     0.2490 h1         1 8TS       0.070700
     22 H5           2.7990     2.0590     0.3870 h1         1 8TS       0.064950
     23 H6           2.1830     1.5610    -1.1920 h1         1 8TS       0.064950
     24 H7          -1.5430    -2.0350     0.9120 ha         1 8TS       0.127000
     25 H8           4.8740     2.1390    -0.7740 hc         1 8TS       0.061700
     26 H9           5.0300     1.7150     0.8780 hc         1 8TS       0.061700
     27 H10          6.3550     1.2410    -0.2640 hc         1 8TS       0.061700
     28 H11          2.2750    -1.3600    -1.4950 h1         1 8TS       0.064950
     29 H12          2.9470    -2.1270    -0.0530 h1         1 8TS       0.064950
     30 H13         -4.0280    -1.9450     0.7050 ha         1 8TS       0.127000
     31 H14         -3.5440     1.8720    -1.2880 h4         1 8TS       0.027100
@<TRIPOS>BOND
     1     1     5 1   
     2     1    10 1   
     3     1    11 1   
     4     2    14 3   
     5     3    11 1   
     6     3    12 1   
     7     3    18 1   
     8     3    19 1   
     9     4     5 1   
    10     4    12 1   
    11     4    20 1   
    12     4    21 1   
    13     5    22 1   
    14     5    23 1   
    15     6     7 ar  
    16     6    12 1   
    17     6    16 ar  
    18     7    13 ar  
    19     7    24 1   
    20     8    13 ar  
    21     8    14 1   
    22     8    15 ar  
    23     9    10 1   
    24     9    25 1   
    25     9    26 1   
    26     9    27 1   
    27    10    17 2   
    28    11    28 1   
    29    11    29 1   
    30    13    30 1   
    31    15    16 ar  
    32    15    31 1   
@<TRIPOS>SUBSTRUCTURE
     1 8TS         1 TEMP              0 ****  ****    0 ROOT
