@<TRIPOS>MOLECULE
8TU
   53    52     1     0     0
SMALL
No Charge or Current Charge


@<TRIPOS>ATOM
      1 C2          -7.1600    -0.3830    -0.3700 c          1 8TU       0.716000
      2 C12          1.9290     2.6180     0.3660 c3         1 8TU       0.167600
      3 C22          6.9830     1.2900    -0.5400 c3         1 8TU      -0.090100
      4 O1          -7.7380     0.5480    -0.9100 o          1 8TU      -0.745500
      5 O3          -7.4760    -1.5530    -0.5210 o          1 8TU      -0.745500
      6 C4          -5.9320    -0.0680     0.5040 c3         1 8TU      -0.203400
      7 C5          -4.6460    -0.0680    -0.3590 c3         1 8TU      -0.054400
      8 C6          -3.3680     0.2430     0.4520 c3         1 8TU      -0.076400
      9 C7          -2.0860     0.2450    -0.4160 c3         1 8TU      -0.100400
     10 C8          -0.7930     0.6060     0.3600 c3         1 8TU       0.173300
     11 O9          -0.5350    -0.4080     1.3420 oh         1 8TU      -0.667000
     12 C10          0.4300     0.7330    -0.5940 c3         1 8TU      -0.096400
     13 C11          1.8170     1.0840     0.0660 c3         1 8TU      -0.056700
     14 C14          3.0460     0.5520    -0.7860 c3         1 8TU      -0.043700
     15 C15          3.0270    -1.0020    -1.0770 c3         1 8TU      -0.088400
     16 C16          2.8550    -2.0200     0.0950 c3         1 8TU       0.400000
     17 C17          3.7420    -1.7970     1.3350 c3         1 8TU      -0.110100
     18 O19          1.5130    -2.1010     0.4830 oh         1 8TU      -0.692000
     19 O18          3.1090    -3.3100    -0.3950 oh         1 8TU      -0.692000
     20 C20          4.4330     1.0590    -0.2460 c3         1 8TU      -0.078400
     21 C21          5.6990     0.5690    -0.9950 c3         1 8TU      -0.078400
     22 H2           1.9360     3.1710    -0.5830 h1         1 8TU       0.008200
     23 H3           7.1540     1.1370     0.5330 hc         1 8TU       0.029700
     24 H4           7.8520     0.9040    -1.0850 hc         1 8TU       0.029700
     25 H5           6.9120     2.3680    -0.7290 hc         1 8TU       0.029700
     26 H7          -6.0100     0.9420     0.9260 hc         1 8TU       0.015700
     27 H8          -5.7870    -0.8520     1.2580 hc         1 8TU       0.015700
     28 H9          -4.5360    -1.0470    -0.8420 hc         1 8TU       0.034200
     29 H10         -4.7520     0.6730    -1.1620 hc         1 8TU       0.034200
     30 H11         -3.4770     1.2230     0.9340 hc         1 8TU       0.033700
     31 H12         -3.2660    -0.4980     1.2540 hc         1 8TU       0.033700
     32 H13         -1.9670    -0.7380    -0.8890 hc         1 8TU       0.028700
     33 H14         -2.2200     0.9700    -1.2280 hc         1 8TU       0.028700
     34 H15         -0.9740     1.5690     0.8530 h1         1 8TU       0.077700
     35 H16          0.2430    -0.9300     1.0210 ho         1 8TU       0.448000
     36 H17          0.4870    -0.2030    -1.1530 hc         1 8TU       0.035700
     37 H18          0.2080     1.4960    -1.3500 hc         1 8TU       0.035700
     38 H19          1.8680     0.5860     1.0390 hc         1 8TU       0.074700
     39 H20          1.0360     4.0520     1.3500 ho         1 8TU       0.434000
     40 H21          2.9450     1.0230    -1.7720 hc         1 8TU       0.040700
     41 H22          2.2500    -1.2100    -1.8210 hc         1 8TU       0.055200
     42 H23          3.9370    -1.2720    -1.6210 hc         1 8TU       0.055200
     43 H24          3.4600    -0.8810     1.8640 hc         1 8TU       0.049367
     44 H25          3.6370    -2.6230     2.0470 hc         1 8TU       0.049367
     45 H26          4.7990    -1.7250     1.0510 hc         1 8TU       0.049367
     46 H27          1.0840    -2.5240    -0.2890 ho         1 8TU       0.458000
     47 H28          3.3360    -3.8490     0.3900 ho         1 8TU       0.458000
     48 H29          4.4560     2.1510    -0.3290 hc         1 8TU       0.037700
     49 H30          4.5350     0.8340     0.8210 hc         1 8TU       0.037700
     50 H31          5.5690     0.7190    -2.0740 hc         1 8TU       0.039700
     51 H32          5.8440    -0.5050    -0.8290 hc         1 8TU       0.039700
     52 O13          0.8720     3.0950     1.2010 oh         1 8TU      -0.645000
     53 H1           2.8730     2.8270     0.8800 h1         1 8TU       0.008200
@<TRIPOS>BOND
     1     1     4 1   
     2     1     5 1   
     3     1     6 1   
     4     2    13 1   
     5     2    22 1   
     6     2    52 1   
     7     2    53 1   
     8     3    21 1   
     9     3    23 1   
    10     3    24 1   
    11     3    25 1   
    12     6     7 1   
    13     6    26 1   
    14     6    27 1   
    15     7     8 1   
    16     7    28 1   
    17     7    29 1   
    18     8     9 1   
    19     8    30 1   
    20     8    31 1   
    21     9    10 1   
    22     9    32 1   
    23     9    33 1   
    24    10    11 1   
    25    10    12 1   
    26    10    34 1   
    27    11    35 1   
    28    12    13 1   
    29    12    36 1   
    30    12    37 1   
    31    13    14 1   
    32    13    38 1   
    33    14    15 1   
    34    14    20 1   
    35    14    40 1   
    36    15    16 1   
    37    15    41 1   
    38    15    42 1   
    39    16    17 1   
    40    16    18 1   
    41    16    19 1   
    42    17    43 1   
    43    17    44 1   
    44    17    45 1   
    45    18    46 1   
    46    19    47 1   
    47    20    21 1   
    48    20    48 1   
    49    20    49 1   
    50    21    50 1   
    51    21    51 1   
    52    39    52 1   
@<TRIPOS>SUBSTRUCTURE
     1 8TU         1 TEMP              0 ****  ****    0 ROOT
