@<TRIPOS>MOLECULE
8TU
   53    52     1     0     0
SMALL
abcg2


@<TRIPOS>ATOM
      1 C2          -6.9040    -0.9250    -0.2830 c          1 8TU       0.716000
      2 C12          2.1370     2.6920     0.3490 c3         1 8TU       0.167600
      3 C22          6.8930     0.9590    -0.4940 c3         1 8TU      -0.090100
      4 O1          -7.9940    -0.7920     0.3130 o          1 8TU      -0.745500
      5 O3          -6.7230    -1.5270    -1.3610 o          1 8TU      -0.745500
      6 C4          -5.6820    -0.2910     0.4030 c3         1 8TU      -0.203400
      7 C5          -4.3950    -0.2620    -0.4030 c3         1 8TU      -0.054400
      8 C6          -3.2360     0.3660     0.3620 c3         1 8TU      -0.076400
      9 C7          -1.9330     0.3770    -0.4270 c3         1 8TU      -0.100400
     10 C8          -0.7390     0.9370     0.3450 c3         1 8TU       0.173300
     11 O9          -0.4860     0.1750     1.5120 oh         1 8TU      -0.667000
     12 C10          0.4820     1.0260    -0.5830 c3         1 8TU      -0.096400
     13 C11          1.8530     1.2150     0.0880 c3         1 8TU      -0.056700
     14 C14          2.9880     0.5930    -0.7620 c3         1 8TU      -0.043700
     15 C15          2.8420    -0.9140    -1.0560 c3         1 8TU      -0.088400
     16 C16          2.6090    -1.9360     0.0700 c3         1 8TU       0.400000
     17 C17          3.4360    -1.7190     1.3270 c3         1 8TU      -0.110100
     18 O19          1.2530    -1.9580     0.4920 oh         1 8TU      -0.692000
     19 O18          2.9230    -3.1750    -0.5140 oh         1 8TU      -0.692000
     20 C20          4.3840     0.9790    -0.2310 c3         1 8TU      -0.078400
     21 C21          5.5750     0.3400    -0.9390 c3         1 8TU      -0.078400
     22 H2           2.3370     3.1900    -0.6130 h1         1 8TU       0.008200
     23 H3           7.0380     0.8410     0.5820 hc         1 8TU       0.029700
     24 H4           7.7430     0.4920    -0.9940 hc         1 8TU       0.029700
     25 H5           6.9250     2.0280    -0.7130 hc         1 8TU       0.029700
     26 H7          -5.9500     0.7260     0.7110 hc         1 8TU       0.015700
     27 H8          -5.5070    -0.8300     1.3430 hc         1 8TU       0.015700
     28 H9          -4.1210    -1.2780    -0.7010 hc         1 8TU       0.034200
     29 H10         -4.5550     0.2880    -1.3370 hc         1 8TU       0.034200
     30 H11         -3.4980     1.3920     0.6450 hc         1 8TU       0.033700
     31 H12         -3.0860    -0.1770     1.3010 hc         1 8TU       0.033700
     32 H13         -1.6940    -0.6420    -0.7590 hc         1 8TU       0.028700
     33 H14         -2.0670     0.9660    -1.3410 hc         1 8TU       0.028700
     34 H15         -0.9980     1.9370     0.6970 h1         1 8TU       0.077700
     35 H16          0.0570    -0.5870     1.2640 ho         1 8TU       0.448000
     36 H17          0.4940     0.1160    -1.1870 hc         1 8TU       0.035700
     37 H18          0.3130     1.8350    -1.3020 hc         1 8TU       0.035700
     38 H19          1.8460     0.7130     1.0600 hc         1 8TU       0.074700
     39 H20          1.2760     4.2080     1.1870 ho         1 8TU       0.434000
     40 H21          2.9150     1.0560    -1.7560 hc         1 8TU       0.040700
     41 H22          2.0400    -1.0580    -1.7870 hc         1 8TU       0.055200
     42 H23          3.7430    -1.2240    -1.5870 hc         1 8TU       0.055200
     43 H24          3.1770    -0.7940     1.8390 hc         1 8TU       0.049367
     44 H25          3.2760    -2.5410     2.0290 hc         1 8TU       0.049367
     45 H26          4.4980    -1.6890     1.0830 hc         1 8TU       0.049367
     46 H27          0.7090    -2.1830    -0.2730 ho         1 8TU       0.458000
     47 H28          2.8400    -3.8640     0.1560 ho         1 8TU       0.458000
     48 H29          4.4980     2.0610    -0.3390 hc         1 8TU       0.037700
     49 H30          4.4610     0.7800     0.8420 hc         1 8TU       0.037700
     50 H31          5.4630     0.4510    -2.0230 hc         1 8TU       0.039700
     51 H32          5.6110    -0.7350    -0.7450 hc         1 8TU       0.039700
     52 O13          1.0450     3.2920     1.0120 oh         1 8TU      -0.645000
     53 H1           3.0430     2.7940     0.9560 h1         1 8TU       0.008200
@<TRIPOS>BOND
     1     1     4 1   
     2     1     5 1   
     3     1     6 1   
     4     2    13 1   
     5     2    22 1   
     6     2    52 1   
     7     2    53 1   
     8     3    21 1   
     9     3    23 1   
    10     3    24 1   
    11     3    25 1   
    12     6     7 1   
    13     6    26 1   
    14     6    27 1   
    15     7     8 1   
    16     7    28 1   
    17     7    29 1   
    18     8     9 1   
    19     8    30 1   
    20     8    31 1   
    21     9    10 1   
    22     9    32 1   
    23     9    33 1   
    24    10    11 1   
    25    10    12 1   
    26    10    34 1   
    27    11    35 1   
    28    12    13 1   
    29    12    36 1   
    30    12    37 1   
    31    13    14 1   
    32    13    38 1   
    33    14    15 1   
    34    14    20 1   
    35    14    40 1   
    36    15    16 1   
    37    15    41 1   
    38    15    42 1   
    39    16    17 1   
    40    16    18 1   
    41    16    19 1   
    42    17    43 1   
    43    17    44 1   
    44    17    45 1   
    45    18    46 1   
    46    19    47 1   
    47    20    21 1   
    48    20    48 1   
    49    20    49 1   
    50    21    50 1   
    51    21    51 1   
    52    39    52 1   
@<TRIPOS>SUBSTRUCTURE
     1 8TU         1 TEMP              0 ****  ****    0 ROOT
