@<TRIPOS>MOLECULE
8TV
   30    31     1     0     0
SMALL
No Charge or Current Charge


@<TRIPOS>ATOM
      1 N1          -2.4140     0.1690    -0.4100 n          1 8TV      -0.417800
      2 N3           4.7070    -0.1200     0.2920 nb         1 8TV      -0.692000
      3 C4          -0.3130    -1.2170    -0.3040 c6         1 8TV       0.189300
      4 C5          -0.2610     1.1890     0.4000 c6         1 8TV       0.189300
      5 C6          -1.6030     1.4160    -0.3500 c6         1 8TV       0.089500
      6 C7           1.9060    -0.0310    -0.0030 ca         1 8TV       0.358000
      7 C8           2.7090     1.0390    -0.4110 ca         1 8TV      -0.239000
      8 C10          3.9310    -1.1520     0.6850 ca         1 8TV       0.364400
      9 C1          -4.3820    -1.3060     0.2230 c3         1 8TV      -0.177100
     10 C2          -3.6050     0.0070     0.3350 c          1 8TV       0.611100
     11 C3          -1.6570    -0.9520    -1.0390 c6         1 8TV       0.089500
     12 N2           0.5040     0.0300    -0.1610 nh         1 8TV      -0.801400
     13 C9           4.0950     0.9560    -0.2480 ca         1 8TV       0.364400
     14 C11          2.5380    -1.1500     0.5550 ca         1 8TV      -0.239000
     15 O1          -4.0390     0.9160     1.0300 o          1 8TV      -0.600100
     16 H1          -0.5280    -1.6390     0.6890 h1         1 8TV       0.051450
     17 H2           0.2450    -1.9770    -0.8710 h1         1 8TV       0.051450
     18 H3           0.3280     2.1160     0.3430 h1         1 8TV       0.051450
     19 H4          -0.4770     1.0090     1.4630 h1         1 8TV       0.051450
     20 H5          -1.3860     1.7470    -1.3760 h1         1 8TV       0.064450
     21 H6          -2.1590     2.2290     0.1370 h1         1 8TV       0.064450
     22 H7           2.2720     1.9230    -0.8630 ha         1 8TV       0.118500
     23 H8           4.4450    -2.0080     1.1200 h4         1 8TV       0.013600
     24 H9          -3.7580    -2.1220     0.6030 hc         1 8TV       0.061033
     25 H10         -5.3410    -1.2700     0.7510 hc         1 8TV       0.061033
     26 H11         -4.5110    -1.5640    -0.8340 hc         1 8TV       0.061033
     27 H12         -2.2400    -1.8810    -1.0680 h1         1 8TV       0.064450
     28 H13         -1.4390    -0.6840    -2.0830 h1         1 8TV       0.064450
     29 H14          4.7410     1.7750    -0.5620 h4         1 8TV       0.013600
     30 H15          1.9700    -2.0060     0.8990 ha         1 8TV       0.118500
@<TRIPOS>BOND
     1     1     5 1   
     2     1    10 1   
     3     1    11 1   
     4     2     8 ar  
     5     2    13 ar  
     6     3    11 1   
     7     3    12 1   
     8     3    16 1   
     9     3    17 1   
    10     4     5 1   
    11     4    12 1   
    12     4    18 1   
    13     4    19 1   
    14     5    20 1   
    15     5    21 1   
    16     6     7 ar  
    17     6    12 1   
    18     6    14 ar  
    19     7    13 ar  
    20     7    22 1   
    21     8    14 ar  
    22     8    23 1   
    23     9    10 1   
    24     9    24 1   
    25     9    25 1   
    26     9    26 1   
    27    10    15 2   
    28    11    27 1   
    29    11    28 1   
    30    13    29 1   
    31    14    30 1   
@<TRIPOS>SUBSTRUCTURE
     1 8TV         1 TEMP              0 ****  ****    0 ROOT
