@<TRIPOS>MOLECULE
8TV
   30    31     1     0     0
SMALL
bcc


@<TRIPOS>ATOM
      1 N1          -2.3590     0.1060    -0.4060 n          1 8TV      -0.484800
      2 N3           4.6500    -0.1420     0.3330 nb         1 8TV      -0.692000
      3 C4          -0.3090    -1.1950    -0.1410 c6         1 8TV       0.189300
      4 C5          -0.2650     1.2260     0.1540 c6         1 8TV       0.189300
      5 C6          -1.5920     1.3200    -0.5780 c6         1 8TV       0.089500
      6 C7           1.8280    -0.0270    -0.0170 ca         1 8TV       0.219600
      7 C8           2.6340     1.1270     0.0100 ca         1 8TV      -0.322300
      8 C10          3.8920    -1.2330     0.3190 ca         1 8TV       0.429700
      9 C1          -4.2520    -1.2380     0.3600 c3         1 8TV      -0.177100
     10 C2          -3.5590     0.0960     0.2170 c          1 8TV       0.678100
     11 C3          -1.6320    -1.0520    -0.8750 c6         1 8TV       0.089500
     12 N2           0.4730     0.0270    -0.2210 nh         1 8TV      -0.663000
     13 C9           3.9990     1.0080     0.1790 ca         1 8TV       0.429700
     14 C11          2.5190    -1.2400     0.1580 ca         1 8TV      -0.322300
     15 O1          -4.0760     1.1220     0.6410 o          1 8TV      -0.600100
     16 H1          -0.4920    -1.4800     0.9030 h1         1 8TV       0.051450
     17 H2           0.2300    -2.0100    -0.6190 h1         1 8TV       0.051450
     18 H3           0.3050     2.1160    -0.0970 h1         1 8TV       0.051450
     19 H4          -0.4410     1.2410     1.2370 h1         1 8TV       0.051450
     20 H5          -1.4140     1.4790    -1.6460 h1         1 8TV       0.064450
     21 H6          -2.1490     2.1720    -0.1990 h1         1 8TV       0.064450
     22 H7           2.2280     2.1190    -0.1140 ha         1 8TV       0.136500
     23 H8           4.4050    -2.1790     0.4560 h4         1 8TV       0.013600
     24 H9          -3.6680    -1.9420     0.9540 hc         1 8TV       0.061033
     25 H10         -5.2080    -1.0870     0.8550 hc         1 8TV       0.061033
     26 H11         -4.4370    -1.7020    -0.6090 hc         1 8TV       0.061033
     27 H12         -2.2050    -1.9640    -0.7410 h1         1 8TV       0.064450
     28 H13         -1.4430    -0.9410    -1.9470 h1         1 8TV       0.064450
     29 H14          4.6020     1.9100     0.1890 h4         1 8TV       0.013600
     30 H15          2.0140    -2.1940     0.1870 ha         1 8TV       0.136500
@<TRIPOS>BOND
     1     1     5 1   
     2     1    10 1   
     3     1    11 1   
     4     2     8 ar  
     5     2    13 ar  
     6     3    11 1   
     7     3    12 1   
     8     3    16 1   
     9     3    17 1   
    10     4     5 1   
    11     4    12 1   
    12     4    18 1   
    13     4    19 1   
    14     5    20 1   
    15     5    21 1   
    16     6     7 ar  
    17     6    12 1   
    18     6    14 ar  
    19     7    13 ar  
    20     7    22 1   
    21     8    14 ar  
    22     8    23 1   
    23     9    10 1   
    24     9    24 1   
    25     9    25 1   
    26     9    26 1   
    27    10    15 2   
    28    11    27 1   
    29    11    28 1   
    30    13    29 1   
    31    14    30 1   
@<TRIPOS>SUBSTRUCTURE
     1 8TV         1 TEMP              0 ****  ****    0 ROOT
