@<TRIPOS>MOLECULE
8TW
   21    22     1     0     0
SMALL
bcc


@<TRIPOS>ATOM
      1 O01          2.7460    -1.8610     0.1380 o          1 8TW      -0.833800
      2 C02          2.8200    -0.6140     0.1510 c          1 8TW       0.938600
      3 C03          1.9270     0.1010    -0.8930 c5         1 8TW      -0.087500
      4 C04          1.8410     1.5930    -0.9270 c2         1 8TW      -0.789200
      5 S05          0.4350     2.2210    -0.3280 s4         1 8TW       0.154700
      6 C06         -0.5510     0.7730    -0.9170 cy         1 8TW       0.081600
      7 C07          0.4610    -0.3930    -0.8680 cy         1 8TW       0.014300
      8 C08         -0.2220    -0.8980     0.4280 cy         1 8TW       0.375600
      9 O09          0.4210    -0.3960     1.5390 oh         1 8TW      -0.539800
     10 O10         -0.4450    -2.2480     0.4660 oh         1 8TW      -0.539800
     11 C11         -1.4510     0.0140     0.0480 cy         1 8TW       0.084800
     12 CL2         -2.2610     0.9060     1.3490 cl         1 8TW      -0.177900
     13 CL3         -2.6800    -0.8880    -0.8630 cl         1 8TW      -0.177900
     14 O14          3.5810     0.0790     0.8480 o          1 8TW      -0.833800
     15 H1           2.3500    -0.2240    -1.8540 hc         1 8TW       0.047700
     16 H2           2.6420     2.2740    -1.1680 h4         1 8TW       0.155000
     17 H3          -0.9910     1.0660    -1.8670 h1         1 8TW       0.100700
     18 H4           0.2660    -1.1050    -1.6700 hc         1 8TW       0.079700
     19 H5          -0.1570    -0.4300     2.3130 ho         1 8TW       0.395000
     20 H6          -1.0680    -2.4710     1.1690 ho         1 8TW       0.395000
     21 H8           0.1790     1.9890     1.0140 hs         1 8TW       0.157000
@<TRIPOS>BOND
     1     1     2 1   
     2     2     3 1   
     3     2    14 1   
     4     3     4 1   
     5     3     7 1   
     6     3    15 1   
     7     4     5 2   
     8     4    16 1   
     9     5     6 1   
    10     5    21 1   
    11     6     7 1   
    12     6    11 1   
    13     6    17 1   
    14     7     8 1   
    15     7    18 1   
    16     8     9 1   
    17     8    10 1   
    18     8    11 1   
    19     9    19 1   
    20    10    20 1   
    21    11    12 1   
    22    11    13 1   
@<TRIPOS>SUBSTRUCTURE
     1 8TW         1 TEMP              0 ****  ****    0 ROOT
