@<TRIPOS>MOLECULE
8TW
   21    22     1     0     0
SMALL
No Charge or Current Charge


@<TRIPOS>ATOM
      1 O01          3.6710    -1.6890    -0.7950 o          1 8TW      -0.728500
      2 C02          2.9850    -0.8890    -0.1710 c          1 8TW       0.728000
      3 C03          1.9860     0.0340    -0.9920 c5         1 8TW      -0.087500
      4 C04          2.0140     1.5940    -0.7930 c2         1 8TW      -0.839200
      5 S05          0.2730     2.4330    -0.2910 s4         1 8TW       0.154700
      6 C06         -0.5320     0.8080    -0.8330 cy         1 8TW       0.081600
      7 C07          0.4800    -0.3710    -0.7560 cy         1 8TW       0.014300
      8 C08         -0.2130    -0.7000     0.6400 cy         1 8TW       0.422000
      9 O09          0.2700    -0.0460     1.7970 oh         1 8TW      -0.602000
     10 O10         -0.2690    -2.0740     0.9600 oh         1 8TW      -0.602000
     11 C11         -1.5280    -0.0540     0.0130 cy         1 8TW       0.238000
     12 Cl2         -2.6220     0.8470     1.1330 cl         1 8TW      -0.254500
     13 Cl3         -2.6170    -1.1510    -0.9300 cl         1 8TW      -0.254500
     14 O14          3.0960    -0.7760     1.0420 o          1 8TW      -0.728500
     15 H1           2.2030    -0.1710    -2.0470 hc         1 8TW       0.047700
     16 H2           2.7760     2.2600    -1.2000 h4         1 8TW       0.205000
     17 H3          -0.8710     1.0440    -1.8460 h1         1 8TW       0.100700
     18 H4           0.2390    -1.1640    -1.4740 hc         1 8TW       0.079700
     19 H5          -0.4750    -0.0010     2.4310 ho         1 8TW       0.434000
     20 H6          -1.1820    -2.2630     1.2610 ho         1 8TW       0.434000
     21 H8           0.1600     1.8170     0.9600 hs         1 8TW       0.157000
@<TRIPOS>BOND
     1     1     2 1   
     2     2     3 1   
     3     2    14 1   
     4     3     4 1   
     5     3     7 1   
     6     3    15 1   
     7     4     5 2   
     8     4    16 1   
     9     5     6 1   
    10     5    21 1   
    11     6     7 1   
    12     6    11 1   
    13     6    17 1   
    14     7     8 1   
    15     7    18 1   
    16     8     9 1   
    17     8    10 1   
    18     8    11 1   
    19     9    19 1   
    20    10    20 1   
    21    11    12 1   
    22    11    13 1   
@<TRIPOS>SUBSTRUCTURE
     1 8TW         1 TEMP              0 ****  ****    0 ROOT
