@<TRIPOS>MOLECULE
8TX
   16    17     1     0     0
SMALL
No Charge or Current Charge


@<TRIPOS>ATOM
      1 N1          -2.4190     0.6090    -0.0060 ns         1 8TX      -0.473500
      2 C2          -2.5080    -0.7550     0.0360 c          1 8TX       0.633000
      3 O2          -3.5720    -1.3430     0.0490 o          1 8TX      -0.528000
      4 N3          -1.3060    -1.4100     0.0610 ns         1 8TX      -0.509600
      5 C4          -0.0960    -0.7760     0.0470 cc         1 8TX       0.155200
      6 C5          -0.0520     0.5720     0.0060 cd         1 8TX      -0.237600
      7 C6          -1.2900     1.3830    -0.0240 c          1 8TX       0.633200
      8 O6          -1.3240     2.6030    -0.0620 o          1 8TX      -0.504000
      9 N7           1.2840     0.9870    -0.0010 ns         1 8TX      -0.368600
     10 C8           2.0810    -0.1320     0.0360 cs         1 8TX       0.392400
     11 S8           3.7440    -0.2060     0.0460 s          1 8TX      -0.577400
     12 N9           1.2020    -1.1690     0.0640 ns         1 8TX      -0.433600
     13 HN1         -3.2940     1.1070    -0.0250 hn         1 8TX       0.353500
     14 HN3         -1.3650    -2.4220     0.0910 hn         1 8TX       0.474000
     15 HN7          1.6550     1.9380    -0.0290 hn         1 8TX       0.502000
     16 HN9          1.5200    -2.1340     0.0950 hn         1 8TX       0.489000
@<TRIPOS>BOND
     1     1     2 1   
     2     1     7 1   
     3     1    13 1   
     4     2     3 2   
     5     2     4 1   
     6     4     5 1   
     7     4    14 1   
     8     5     6 2   
     9     5    12 1   
    10     6     7 1   
    11     6     9 1   
    12     7     8 2   
    13     9    10 1   
    14     9    15 1   
    15    10    11 2   
    16    10    12 1   
    17    12    16 1   
@<TRIPOS>SUBSTRUCTURE
     1 8TX         1 TEMP              0 ****  ****    0 ROOT
