@<TRIPOS>MOLECULE
8TX
   16    17     1     0     0
SMALL
abcg2


@<TRIPOS>ATOM
      1 N1          -2.3890     0.6050    -0.0050 ns         1 8TX      -0.473500
      2 C2          -2.4780    -0.7690     0.0370 c          1 8TX       0.633000
      3 O2          -3.5370    -1.3570     0.0510 o          1 8TX      -0.528000
      4 N3          -1.2680    -1.4260     0.0620 ns         1 8TX      -0.509600
      5 C4          -0.1150    -0.7220     0.0470 cc         1 8TX       0.155200
      6 C5          -0.0670     0.6350     0.0070 cd         1 8TX      -0.237600
      7 C6          -1.2570     1.4190    -0.0250 c          1 8TX       0.633200
      8 O6          -1.3380     2.6300    -0.0640 o          1 8TX      -0.504000
      9 N7           1.2730     0.9730    -0.0000 ns         1 8TX      -0.368600
     10 C8           2.0390    -0.1290     0.0350 cs         1 8TX       0.392400
     11 S8           3.7000    -0.2380     0.0460 s          1 8TX      -0.577400
     12 N9           1.1570    -1.1810     0.0630 ns         1 8TX      -0.433600
     13 HN1         -3.2800     1.0860    -0.0290 hn         1 8TX       0.353500
     14 HN3         -1.2740    -2.4360     0.0930 hn         1 8TX       0.474000
     15 HN7          1.6460     1.9100    -0.0260 hn         1 8TX       0.502000
     16 HN9          1.4490    -2.1480     0.0910 hn         1 8TX       0.489000
@<TRIPOS>BOND
     1     1     2 1   
     2     1     7 1   
     3     1    13 1   
     4     2     3 2   
     5     2     4 1   
     6     4     5 1   
     7     4    14 1   
     8     5     6 2   
     9     5    12 1   
    10     6     7 1   
    11     6     9 1   
    12     7     8 2   
    13     9    10 1   
    14     9    15 1   
    15    10    11 2   
    16    10    12 1   
    17    12    16 1   
@<TRIPOS>SUBSTRUCTURE
     1 8TX         1 TEMP              0 ****  ****    0 ROOT
