@<TRIPOS>MOLECULE
8TY
   27    27     1     0     0
SMALL
No Charge or Current Charge


@<TRIPOS>ATOM
      1 N1          -1.9750     0.1000    -0.3540 n          1 8TY      -0.417800
      2 C4           0.1780    -1.1770    -0.1320 c6         1 8TY       0.168800
      3 C5           0.2140     1.2850    -0.0220 c6         1 8TY       0.168800
      4 C6          -1.2020     1.3370    -0.6540 c6         1 8TY       0.098500
      5 C7           2.6040    -0.0600     1.8090 c3         1 8TY      -0.382100
      6 C1          -3.8680    -1.2000     0.7310 c3         1 8TY      -0.177100
      7 C2          -3.1210     0.1100     0.4750 c          1 8TY       0.608100
      8 C3          -1.2400    -1.1320    -0.7620 c6         1 8TY       0.098500
      9 N2           0.9570     0.0590    -0.4350 n3         1 8TY      -0.721500
     10 S1           2.6180     0.0150     0.0240 s6         1 8TY       1.196100
     11 O1           3.2050     1.2890    -0.4010 o          1 8TY      -0.528500
     12 O2           3.1670    -1.2370    -0.5070 o          1 8TY      -0.528500
     13 O3          -3.5400     1.1540     0.9550 o          1 8TY      -0.597100
     14 H1           0.0730    -1.3090     0.9550 h1         1 8TY       0.062200
     15 H2           0.6940    -2.0680    -0.5180 h1         1 8TY       0.062200
     16 H3           0.7570     2.1920    -0.3260 h1         1 8TY       0.062200
     17 H4           0.1090     1.3230     1.0730 h1         1 8TY       0.062200
     18 H5          -1.1020     1.4380    -1.7440 h1         1 8TY       0.069200
     19 H6          -1.7270     2.2330    -0.2950 h1         1 8TY       0.069200
     20 H7           2.0720    -0.9700     2.1050 h1         1 8TY       0.101033
     21 H8           3.6460    -0.0900     2.1410 h1         1 8TY       0.101033
     22 H9           2.1010     0.8380     2.1810 h1         1 8TY       0.101033
     23 H10         -3.2040    -1.8910     1.2620 hc         1 8TY       0.062033
     24 H11         -4.7990    -1.0480     1.2880 hc         1 8TY       0.062033
     25 H12         -4.0460    -1.7110    -0.2220 hc         1 8TY       0.062033
     26 H13         -1.7800    -2.0470    -0.4900 h1         1 8TY       0.069200
     27 H14         -1.1390    -1.1350    -1.8570 h1         1 8TY       0.069200
@<TRIPOS>BOND
     1     1     4 1   
     2     1     7 1   
     3     1     8 1   
     4     2     8 1   
     5     2     9 1   
     6     2    14 1   
     7     2    15 1   
     8     3     4 1   
     9     3     9 1   
    10     3    16 1   
    11     3    17 1   
    12     4    18 1   
    13     4    19 1   
    14     5    10 1   
    15     5    20 1   
    16     5    21 1   
    17     5    22 1   
    18     6     7 1   
    19     6    23 1   
    20     6    24 1   
    21     6    25 1   
    22     7    13 2   
    23     8    26 1   
    24     8    27 1   
    25     9    10 1   
    26    10    11 2   
    27    10    12 2   
@<TRIPOS>SUBSTRUCTURE
     1 8TY         1 TEMP              0 ****  ****    0 ROOT
