@<TRIPOS>MOLECULE
8TY
   27    27     1     0     0
SMALL
bcc


@<TRIPOS>ATOM
      1 N1          -1.9440     0.0940    -0.3490 n          1 8TY      -0.484800
      2 C4           0.1140    -1.1710    -0.0150 c6         1 8TY       0.168800
      3 C5           0.1470     1.2740     0.0860 c6         1 8TY       0.168800
      4 C6          -1.1940     1.3010    -0.6290 c6         1 8TY       0.098500
      5 C7           2.7130    -0.0820     1.7530 c3         1 8TY      -0.271300
      6 C1          -3.7700    -1.1920     0.6530 c3         1 8TY      -0.177100
      7 C2          -3.1050     0.1300     0.3480 c          1 8TY       0.675100
      8 C3          -1.2260    -1.1030    -0.7310 c6         1 8TY       0.098500
      9 N2           0.8640     0.0540    -0.2900 n3         1 8TY      -0.721500
     10 S1           2.4960     0.0180    -0.0110 s6         1 8TY       1.226900
     11 O1           3.0320     1.2930    -0.4630 o          1 8TY      -0.599300
     12 O2           3.0050    -1.2100    -0.6000 o          1 8TY      -0.599300
     13 O3          -3.6080     1.1850     0.7080 o          1 8TY      -0.597100
     14 H1          -0.0570    -1.3050     1.0600 h1         1 8TY       0.062200
     15 H2           0.6650    -2.0320    -0.3870 h1         1 8TY       0.062200
     16 H3           0.7230     2.1460    -0.2160 h1         1 8TY       0.062200
     17 H4          -0.0160     1.3250     1.1690 h1         1 8TY       0.062200
     18 H5          -1.0320     1.3830    -1.7070 h1         1 8TY       0.069200
     19 H6          -1.7560     2.1720    -0.3050 h1         1 8TY       0.069200
     20 H7           2.2420    -0.9880     2.1280 h1         1 8TY       0.101033
     21 H8           3.7830    -0.1160     1.9550 h1         1 8TY       0.101033
     22 H9           2.2780     0.7950     2.2280 h1         1 8TY       0.101033
     23 H10         -3.1370    -1.8360     1.2630 hc         1 8TY       0.062033
     24 H11         -4.6910    -1.0030     1.2000 hc         1 8TY       0.062033
     25 H12         -4.0180    -1.7390    -0.2570 hc         1 8TY       0.062033
     26 H13         -1.7930    -1.9990    -0.4970 h1         1 8TY       0.069200
     27 H14         -1.0600    -1.0930    -1.8120 h1         1 8TY       0.069200
@<TRIPOS>BOND
     1     1     4 1   
     2     1     7 1   
     3     1     8 1   
     4     2     8 1   
     5     2     9 1   
     6     2    14 1   
     7     2    15 1   
     8     3     4 1   
     9     3     9 1   
    10     3    16 1   
    11     3    17 1   
    12     4    18 1   
    13     4    19 1   
    14     5    10 1   
    15     5    20 1   
    16     5    21 1   
    17     5    22 1   
    18     6     7 1   
    19     6    23 1   
    20     6    24 1   
    21     6    25 1   
    22     7    13 2   
    23     8    26 1   
    24     8    27 1   
    25     9    10 1   
    26    10    11 2   
    27    10    12 2   
@<TRIPOS>SUBSTRUCTURE
     1 8TY         1 TEMP              0 ****  ****    0 ROOT
