@<TRIPOS>MOLECULE
8TZ
   32    33     1     0     0
SMALL
No Charge or Current Charge


@<TRIPOS>ATOM
      1 C1           2.4300     0.1860    -0.5440 ca         1 8TZ      -0.159000
      2 C2           2.8420    -1.1290    -0.2970 ca         1 8TZ       0.184000
      3 C3           1.9650    -2.0430     0.2970 ca         1 8TZ      -0.156000
      4 C4           0.6690    -1.6350     0.6510 ca         1 8TZ      -0.063000
      5 C5           0.2370    -0.3090     0.4210 ca         1 8TZ      -0.124300
      6 C6           1.1300     0.6110    -0.1980 ca         1 8TZ      -0.016300
      7 C7           0.7460     2.0580    -0.5140 c3         1 8TZ      -0.040100
      8 C8           0.9380     2.9970     0.6980 c3         1 8TZ      -0.077400
      9 C9          -1.1950     0.0740     0.8290 c3         1 8TZ       0.196300
     10 C10         -2.2340    -0.4990    -0.1300 cc         1 8TZ       0.350800
     11 O1          -1.4270    -0.3420     2.1930 oh         1 8TZ      -0.660000
     12 N1          -2.9460    -1.6520     0.1030 na         1 8TZ      -0.288500
     13 C11         -3.7840    -1.8640    -0.9730 cc         1 8TZ      -0.230000
     14 C12         -3.5480    -0.8150    -1.8230 cd         1 8TZ       0.229900
     15 N2          -2.5910     0.0290    -1.2950 nd         1 8TZ      -0.661000
     16 F1           4.0890    -1.5190    -0.6370 f          1 8TZ      -0.179000
     17 C13          0.5360     4.4550     0.4020 c3         1 8TZ      -0.089100
     18 H1           3.1270     0.8770    -1.0100 ha         1 8TZ       0.132000
     19 H2           2.2880    -3.0640     0.4810 ha         1 8TZ       0.134000
     20 H3          -0.0030    -2.3580     1.1100 ha         1 8TZ       0.119000
     21 H4           1.3590     2.4330    -1.3430 hc         1 8TZ       0.051200
     22 H5          -0.2870     2.1190    -0.8760 hc         1 8TZ       0.051200
     23 H6           0.3490     2.6310     1.5470 hc         1 8TZ       0.046700
     24 H7           1.9900     2.9720     1.0090 hc         1 8TZ       0.046700
     25 H8          -1.3130     1.1630     0.7810 h1         1 8TZ       0.097700
     26 H9          -0.6870     0.0220     2.7270 ho         1 8TZ       0.448000
     27 H10         -2.8590    -2.2190     0.9390 hn         1 8TZ       0.359000
     28 H11         -4.4620    -2.7060    -1.0540 h4         1 8TZ       0.158000
     29 H12         -4.0140    -0.6190    -2.7820 h4         1 8TZ       0.039100
     30 H14          1.1370     4.8650    -0.4190 hc         1 8TZ       0.033033
     31 H15         -0.5220     4.5170     0.1230 hc         1 8TZ       0.033033
     32 H16          0.6940     5.0820     1.2880 hc         1 8TZ       0.033033
@<TRIPOS>BOND
     1     1     2 ar  
     2     1     6 ar  
     3     1    18 1   
     4     2     3 ar  
     5     2    16 1   
     6     3     4 ar  
     7     3    19 1   
     8     4     5 ar  
     9     4    20 1   
    10     5     6 ar  
    11     5     9 1   
    12     6     7 1   
    13     7     8 1   
    14     7    21 1   
    15     7    22 1   
    16     8    17 1   
    17     8    23 1   
    18     8    24 1   
    19     9    10 1   
    20     9    11 1   
    21     9    25 1   
    22    10    12 1   
    23    10    15 2   
    24    11    26 1   
    25    12    13 1   
    26    12    27 1   
    27    13    14 2   
    28    13    28 1   
    29    14    15 1   
    30    14    29 1   
    31    17    30 1   
    32    17    31 1   
    33    17    32 1   
@<TRIPOS>SUBSTRUCTURE
     1 8TZ         1 TEMP              0 ****  ****    0 ROOT
