@<TRIPOS>MOLECULE
8TZ
   32    33     1     0     0
SMALL
abcg2


@<TRIPOS>ATOM
      1 C1           2.4890     0.3890    -0.5460 ca         1 8TZ      -0.159000
      2 C2           2.8360    -0.9380    -0.4130 ca         1 8TZ       0.184000
      3 C3           1.9130    -1.9080    -0.0760 ca         1 8TZ      -0.156000
      4 C4           0.6040    -1.5060     0.1270 ca         1 8TZ      -0.063000
      5 C5           0.2140    -0.1730     0.0050 ca         1 8TZ      -0.124300
      6 C6           1.1710     0.7930    -0.3320 ca         1 8TZ      -0.016300
      7 C7           0.8690     2.2640    -0.4250 c3         1 8TZ      -0.040100
      8 C8           0.9950     2.9650     0.9300 c3         1 8TZ      -0.077400
      9 C9          -1.2150     0.1930     0.3400 c3         1 8TZ       0.196300
     10 C10         -2.2060    -0.7550    -0.2770 cc         1 8TZ       0.350800
     11 O1          -1.4220     0.3000     1.7320 oh         1 8TZ      -0.660000
     12 N1          -3.3290    -1.1400     0.3640 na         1 8TZ      -0.288500
     13 C11         -4.0450    -1.9320    -0.4850 cc         1 8TZ      -0.230000
     14 C12         -3.3040    -1.9860    -1.6310 cd         1 8TZ       0.229900
     15 N2          -2.1600    -1.2490    -1.4890 nd         1 8TZ      -0.661000
     16 F1           4.1130    -1.2980    -0.6250 f          1 8TZ      -0.179000
     17 C13          0.7140     4.4560     0.8340 c3         1 8TZ      -0.089100
     18 H1           3.2440     1.1190    -0.8130 ha         1 8TZ       0.132000
     19 H2           2.2030    -2.9460     0.0180 ha         1 8TZ       0.134000
     20 H3          -0.1310    -2.2610     0.3760 ha         1 8TZ       0.119000
     21 H4           1.5670     2.7240    -1.1300 hc         1 8TZ       0.051200
     22 H5          -0.1270     2.4430    -0.8360 hc         1 8TZ       0.051200
     23 H6           0.3130     2.5000     1.6460 hc         1 8TZ       0.046700
     24 H7           2.0030     2.8000     1.3200 hc         1 8TZ       0.046700
     25 H8          -1.4380     1.1870    -0.0560 h1         1 8TZ       0.097700
     26 H9          -1.0400    -0.4720     2.1650 ho         1 8TZ       0.448000
     27 H10         -3.5880    -0.8820     1.3030 hn         1 8TZ       0.359000
     28 H11         -4.9850    -2.3760    -0.2070 h4         1 8TZ       0.158000
     29 H12         -3.5280    -2.5210    -2.5400 h4         1 8TZ       0.039100
     30 H14          1.4050     4.9440     0.1440 hc         1 8TZ       0.033033
     31 H15         -0.2990     4.6460     0.4760 hc         1 8TZ       0.033033
     32 H16          0.8180     4.9410     1.8050 hc         1 8TZ       0.033033
@<TRIPOS>BOND
     1     1     2 ar  
     2     1     6 ar  
     3     1    18 1   
     4     2     3 ar  
     5     2    16 1   
     6     3     4 ar  
     7     3    19 1   
     8     4     5 ar  
     9     4    20 1   
    10     5     6 ar  
    11     5     9 1   
    12     6     7 1   
    13     7     8 1   
    14     7    21 1   
    15     7    22 1   
    16     8    17 1   
    17     8    23 1   
    18     8    24 1   
    19     9    10 1   
    20     9    11 1   
    21     9    25 1   
    22    10    12 1   
    23    10    15 2   
    24    11    26 1   
    25    12    13 1   
    26    12    27 1   
    27    13    14 2   
    28    13    28 1   
    29    14    15 1   
    30    14    29 1   
    31    17    30 1   
    32    17    31 1   
    33    17    32 1   
@<TRIPOS>SUBSTRUCTURE
     1 8TZ         1 TEMP              0 ****  ****    0 ROOT
