@<TRIPOS>MOLECULE
8U0
   51    54     1     0     0
SMALL
abcg2


@<TRIPOS>ATOM
      1 C1          -5.7210    -4.5520    -1.6650 c3         1 8U0      -0.184100
      2 C2          -4.8200    -3.6470    -0.8670 c          1 8U0       0.610100
      3 C5          -4.5770    -1.2180    -0.3670 ca         1 8U0       0.041000
      4 C6          -3.4270    -1.2600     0.4280 ca         1 8U0      -0.181000
      5 C7          -2.8920    -0.0850     0.9280 ca         1 8U0       0.019000
      6 C8          -3.4900     1.1350     0.6480 ca         1 8U0      -0.349500
      7 C13         -0.6510     2.1750    -0.3610 ca         1 8U0       0.188000
      8 C14          0.5140     2.1270     0.3900 ca         1 8U0      -0.070000
      9 C15          1.5350     1.2480     0.0560 ca         1 8U0      -0.153500
     10 C16          1.3890     0.4190    -1.0500 ca         1 8U0       0.144100
     11 C18          3.4350    -0.6970    -0.6770 ca         1 8U0       0.094100
     12 C19          3.2810    -1.5250     0.4550 ca         1 8U0      -0.123000
     13 C20          4.3720    -1.8250     1.2210 ca         1 8U0      -0.084000
     14 C21          5.6530    -1.3170     0.8970 ca         1 8U0      -0.040000
     15 C22          6.7960    -1.6160     1.6730 ca         1 8U0      -0.096000
     16 C23          8.0210    -1.1090     1.3350 ca         1 8U0      -0.104000
     17 C24          8.1590    -0.2800     0.2020 ca         1 8U0      -0.103000
     18 C25          7.0710     0.0240    -0.5710 ca         1 8U0      -0.097000
     19 C26          5.7920    -0.4850    -0.2440 ca         1 8U0      -0.030000
     20 C27          4.6500    -0.1820    -1.0230 ca         1 8U0      -0.100000
     21 C28          0.2250     0.4650    -1.8120 ca         1 8U0      -0.153500
     22 C29         -0.7910     1.3330    -1.4600 ca         1 8U0      -0.070000
     23 C30         -4.6340     1.1910    -0.1410 ca         1 8U0       0.019000
     24 C31         -5.1710     0.0220    -0.6370 ca         1 8U0      -0.181000
     25 N4          -5.1890    -2.3320    -0.9210 ns         1 8U0      -0.153000
     26 N12         -1.6810     3.0870    -0.0060 nu         1 8U0      -0.855100
     27 O3          -3.8510    -4.0480    -0.2530 o          1 8U0      -0.561100
     28 O10         -3.7460     3.6770     1.2440 o          1 8U0      -0.533000
     29 O11         -1.9380     2.3320     2.3710 o          1 8U0      -0.533000
     30 O17          2.3480    -0.4460    -1.4770 os         1 8U0      -0.252200
     31 S9          -2.7400     2.6300     1.1980 sy         1 8U0       1.144600
     32 H1          -5.5050    -5.5910    -1.4360 hc         1 8U0       0.067700
     33 H2          -6.7740    -4.3550    -1.4620 hc         1 8U0       0.067700
     34 H3          -5.5570    -4.3910    -2.7320 hc         1 8U0       0.067700
     35 H4          -2.9460    -2.1940     0.6610 ha         1 8U0       0.133500
     36 H5          -2.0030    -0.1380     1.5430 ha         1 8U0       0.137000
     37 H6           0.6380     2.7900     1.2350 ha         1 8U0       0.129500
     38 H7           2.4380     1.2380     0.6520 ha         1 8U0       0.134500
     39 H8           2.3060    -1.9240     0.7030 ha         1 8U0       0.130000
     40 H9           4.2630    -2.4650     2.0880 ha         1 8U0       0.119000
     41 H10          6.6890    -2.2560     2.5420 ha         1 8U0       0.116000
     42 H11          8.8910    -1.3420     1.9360 ha         1 8U0       0.115000
     43 H12          9.1320     0.1160    -0.0550 ha         1 8U0       0.115000
     44 H13          7.1780     0.6600    -1.4410 ha         1 8U0       0.116000
     45 H14          4.7470     0.4550    -1.8940 ha         1 8U0       0.130000
     46 H15          0.1180    -0.1830    -2.6720 ha         1 8U0       0.134500
     47 H16         -1.6980     1.3580    -2.0520 ha         1 8U0       0.129500
     48 H17         -5.1130     2.1330    -0.3680 ha         1 8U0       0.137000
     49 H18         -6.0660     0.0700    -1.2450 ha         1 8U0       0.133500
     50 H19         -6.0150    -2.1330    -1.4660 hn         1 8U0       0.152000
     51 H20         -2.1820     3.4780    -0.7980 hn         1 8U0       0.482000
@<TRIPOS>BOND
     1     1     2 1   
     2     1    32 1   
     3     1    33 1   
     4     1    34 1   
     5     2    25 1   
     6     2    27 2   
     7     3     4 ar  
     8     3    24 ar  
     9     3    25 1   
    10     4     5 ar  
    11     4    35 1   
    12     5     6 ar  
    13     5    36 1   
    14     6    23 ar  
    15     6    31 1   
    16     7     8 ar  
    17     7    22 ar  
    18     7    26 1   
    19     8     9 ar  
    20     8    37 1   
    21     9    10 ar  
    22     9    38 1   
    23    10    21 ar  
    24    10    30 1   
    25    11    12 ar  
    26    11    20 ar  
    27    11    30 1   
    28    12    13 ar  
    29    12    39 1   
    30    13    14 ar  
    31    13    40 1   
    32    14    15 ar  
    33    14    19 ar  
    34    15    16 ar  
    35    15    41 1   
    36    16    17 ar  
    37    16    42 1   
    38    17    18 ar  
    39    17    43 1   
    40    18    19 ar  
    41    18    44 1   
    42    19    20 ar  
    43    20    45 1   
    44    21    22 ar  
    45    21    46 1   
    46    22    47 1   
    47    23    24 ar  
    48    23    48 1   
    49    24    49 1   
    50    25    50 1   
    51    26    31 1   
    52    26    51 1   
    53    28    31 2   
    54    29    31 2   
@<TRIPOS>SUBSTRUCTURE
     1 8U0         1 TEMP              0 ****  ****    0 ROOT
