@<TRIPOS>MOLECULE
8U0
   51    54     1     0     0
SMALL
No Charge or Current Charge


@<TRIPOS>ATOM
      1 C1          -3.5400    -5.3970     0.1260 c3         1 8U0      -0.184100
      2 C2          -3.2520    -4.0390     0.7580 c          1 8U0       0.610100
      3 C5          -3.5960    -1.5550     0.1940 ca         1 8U0       0.041000
      4 C6          -3.0410    -0.9560     1.3450 ca         1 8U0      -0.181000
      5 C7          -3.0040     0.4430     1.4770 ca         1 8U0       0.019000
      6 C8          -3.5220     1.2610     0.4550 ca         1 8U0      -0.349500
      7 C13         -0.9920     3.0670    -0.7180 ca         1 8U0       0.188000
      8 C14         -0.2630     2.4010     0.2910 ca         1 8U0      -0.070000
      9 C15          1.0400     1.9340     0.0400 ca         1 8U0      -0.153500
     10 C16          1.6260     2.1250    -1.2250 ca         1 8U0       0.144100
     11 C18          3.3850     0.4780    -1.0320 ca         1 8U0       0.094100
     12 C19          2.5620    -0.6650    -0.9810 ca         1 8U0      -0.123000
     13 C20          3.0830    -1.8860    -0.5170 ca         1 8U0      -0.084000
     14 C21          4.4280    -1.9710    -0.1110 ca         1 8U0      -0.040000
     15 C22          4.9530    -3.1920     0.3540 ca         1 8U0      -0.096000
     16 C23          6.2990    -3.2730     0.7550 ca         1 8U0      -0.104000
     17 C24          7.1220    -2.1360     0.6910 ca         1 8U0      -0.103000
     18 C25          6.6030    -0.9150     0.2270 ca         1 8U0      -0.097000
     19 C26          5.2560    -0.8280    -0.1750 ca         1 8U0      -0.030000
     20 C27          4.7310     0.3930    -0.6390 ca         1 8U0      -0.100000
     21 C28          0.9180     2.8080    -2.2240 ca         1 8U0      -0.153500
     22 C29         -0.3860     3.2740    -1.9720 ca         1 8U0      -0.070000
     23 C30         -4.0800     0.6730    -0.6940 ca         1 8U0       0.019000
     24 C31         -4.1140    -0.7260    -0.8180 ca         1 8U0      -0.181000
     25 N4          -3.6660    -2.9600    -0.0100 ns         1 8U0      -0.153000
     26 N12         -2.2950     3.5320    -0.5160 nu         1 8U0      -0.855100
     27 O3          -2.7010    -3.9500     1.8490 o          1 8U0      -0.561100
     28 O10         -4.6820     3.6280     0.0380 o          1 8U0      -0.533000
     29 O11         -2.9260     3.4500     1.9020 o          1 8U0      -0.533000
     30 O17          2.9010     1.6820    -1.4930 os         1 8U0      -0.252200
     31 S9          -3.4590     3.0490     0.5980 sy         1 8U0       1.144600
     32 H1          -3.2040    -6.2330     0.7490 hc         1 8U0       0.067700
     33 H2          -4.6100    -5.4650    -0.1010 hc         1 8U0       0.067700
     34 H3          -3.0880    -5.4290    -0.8720 hc         1 8U0       0.067700
     35 H4          -2.6310    -1.5530     2.1520 ha         1 8U0       0.133500
     36 H5          -2.5700     0.8810     2.3750 ha         1 8U0       0.137000
     37 H6          -0.6920     2.2460     1.2750 ha         1 8U0       0.129500
     38 H7           1.5920     1.4290     0.8290 ha         1 8U0       0.134500
     39 H8           1.5250    -0.6110    -1.3020 ha         1 8U0       0.130000
     40 H9           2.4410    -2.7640    -0.4770 ha         1 8U0       0.119000
     41 H10          4.3230    -4.0770     0.4050 ha         1 8U0       0.116000
     42 H11          6.7020    -4.2170     1.1140 ha         1 8U0       0.115000
     43 H12          8.1630    -2.2010     1.0020 ha         1 8U0       0.115000
     44 H13          7.2470    -0.0400     0.1810 ha         1 8U0       0.116000
     45 H14          5.3610     1.2770    -0.6930 ha         1 8U0       0.130000
     46 H15          1.3750     2.9690    -3.1970 ha         1 8U0       0.134500
     47 H16         -0.9280     3.7930    -2.7580 ha         1 8U0       0.129500
     48 H17         -4.4820     1.2940    -1.4940 ha         1 8U0       0.137000
     49 H18         -4.5470    -1.1670    -1.7140 ha         1 8U0       0.133500
     50 H19         -4.1020    -3.2210    -0.8840 hn         1 8U0       0.152000
     51 H20         -2.7980     3.9040    -1.3100 hn         1 8U0       0.482000
@<TRIPOS>BOND
     1     1     2 1   
     2     1    32 1   
     3     1    33 1   
     4     1    34 1   
     5     2    25 1   
     6     2    27 2   
     7     3     4 ar  
     8     3    24 ar  
     9     3    25 1   
    10     4     5 ar  
    11     4    35 1   
    12     5     6 ar  
    13     5    36 1   
    14     6    23 ar  
    15     6    31 1   
    16     7     8 ar  
    17     7    22 ar  
    18     7    26 1   
    19     8     9 ar  
    20     8    37 1   
    21     9    10 ar  
    22     9    38 1   
    23    10    21 ar  
    24    10    30 1   
    25    11    12 ar  
    26    11    20 ar  
    27    11    30 1   
    28    12    13 ar  
    29    12    39 1   
    30    13    14 ar  
    31    13    40 1   
    32    14    15 ar  
    33    14    19 ar  
    34    15    16 ar  
    35    15    41 1   
    36    16    17 ar  
    37    16    42 1   
    38    17    18 ar  
    39    17    43 1   
    40    18    19 ar  
    41    18    44 1   
    42    19    20 ar  
    43    20    45 1   
    44    21    22 ar  
    45    21    46 1   
    46    22    47 1   
    47    23    24 ar  
    48    23    48 1   
    49    24    49 1   
    50    25    50 1   
    51    26    31 1   
    52    26    51 1   
    53    28    31 2   
    54    29    31 2   
@<TRIPOS>SUBSTRUCTURE
     1 8U0         1 TEMP              0 ****  ****    0 ROOT
