@<TRIPOS>MOLECULE
8U1
   26    26     1     0     0
SMALL
bcc


@<TRIPOS>ATOM
      1 N1          -2.3960    -0.3380     0.1170 ns         1 8U1      -0.575900
      2 C4          -0.0840    -0.0520    -0.5920 ca         1 8U1      -0.151300
      3 C5           0.3600     0.9650     0.2560 ca         1 8U1      -0.077500
      4 C6           1.6800     1.0420     0.6510 ca         1 8U1      -0.193500
      5 C7           2.6060     0.0920     0.2050 ca         1 8U1       0.147100
      6 C8           2.1780    -0.9280    -0.6360 ca         1 8U1      -0.193500
      7 C10          4.8390    -0.7060     0.2460 c3         1 8U1       0.124700
      8 C1          -4.3670    -0.1730     1.4960 c3         1 8U1      -0.179100
      9 C2          -3.6090     0.2260     0.2540 c          1 8U1       0.667100
     10 C3          -1.5250    -0.1240    -1.0170 c3         1 8U1       0.151300
     11 C9           0.8410    -0.9880    -1.0230 ca         1 8U1      -0.077500
     12 O1           3.8700     0.2440     0.6410 os         1 8U1      -0.316900
     13 O2          -4.0790     1.0050    -0.5650 o          1 8U1      -0.609100
     14 H1          -2.1090    -1.0240     0.7960 hn         1 8U1       0.312500
     15 H2          -0.3400     1.7100     0.6160 ha         1 8U1       0.133500
     16 H3           2.0080     1.8440     1.3010 ha         1 8U1       0.141500
     17 H4           2.8600    -1.6850    -1.0020 ha         1 8U1       0.141500
     18 H5           4.5810    -1.7160     0.5760 h1         1 8U1       0.041367
     19 H6           4.9830    -0.7220    -0.8370 h1         1 8U1       0.041367
     20 H7           5.7740    -0.4130     0.7170 h1         1 8U1       0.041367
     21 H8          -4.7090     0.7180     2.0170 hc         1 8U1       0.059367
     22 H9          -5.2500    -0.7440     1.2060 hc         1 8U1       0.059367
     23 H10         -3.7810    -0.7780     2.1860 hc         1 8U1       0.059367
     24 H11         -1.6520    -0.9170    -1.7610 h1         1 8U1       0.059700
     25 H12         -1.8250     0.8060    -1.4980 h1         1 8U1       0.059700
     26 H13          0.5260    -1.7940    -1.6750 ha         1 8U1       0.133500
@<TRIPOS>BOND
     1     1     9 1   
     2     1    10 1   
     3     1    14 1   
     4     2     3 ar  
     5     2    10 1   
     6     2    11 ar  
     7     3     4 ar  
     8     3    15 1   
     9     4     5 ar  
    10     4    16 1   
    11     5     6 ar  
    12     5    12 1   
    13     6    11 ar  
    14     6    17 1   
    15     7    12 1   
    16     7    18 1   
    17     7    19 1   
    18     7    20 1   
    19     8     9 1   
    20     8    21 1   
    21     8    22 1   
    22     8    23 1   
    23     9    13 2   
    24    10    24 1   
    25    10    25 1   
    26    11    26 1   
@<TRIPOS>SUBSTRUCTURE
     1 8U1         1 TEMP              0 ****  ****    0 ROOT
