@<TRIPOS>MOLECULE
8U1
   26    26     1     0     0
SMALL
No Charge or Current Charge


@<TRIPOS>ATOM
      1 N1          -2.3810    -0.0460     0.1820 ns         1 8U1      -0.508900
      2 C4          -0.0640     0.3330    -0.5300 ca         1 8U1      -0.151300
      3 C5           0.5910     1.3870     0.1330 ca         1 8U1      -0.059500
      4 C6           1.9500     1.2700     0.4730 ca         1 8U1      -0.175500
      5 C7           2.6660     0.1050     0.1580 ca         1 8U1       0.147100
      6 C8           2.0100    -0.9550    -0.5050 ca         1 8U1      -0.175500
      7 C10          4.8180    -1.1000     0.2400 c3         1 8U1       0.147900
      8 C1          -4.4210    -0.6370     1.3880 c3         1 8U1      -0.179100
      9 C2          -3.7530    -0.0670     0.1430 c          1 8U1       0.600100
     10 C3          -1.5340     0.4550    -0.8960 c3         1 8U1       0.151300
     11 C9           0.6500    -0.8390    -0.8460 ca         1 8U1      -0.059500
     12 O1           3.9970     0.0480     0.5170 os         1 8U1      -0.340100
     13 O2          -4.3880     0.3410    -0.8180 o          1 8U1      -0.609100
     14 H1          -1.9360    -0.4030     1.0180 hn         1 8U1       0.312500
     15 H2           0.0490     2.2960     0.3860 ha         1 8U1       0.115500
     16 H3           2.4510     2.0880     0.9850 ha         1 8U1       0.123500
     17 H4           2.5340    -1.8710    -0.7630 ha         1 8U1       0.123500
     18 H5           4.4180    -1.9940     0.7350 h1         1 8U1       0.041367
     19 H6           4.8730    -1.2890    -0.8390 h1         1 8U1       0.041367
     20 H7           5.8380    -0.9360     0.6090 h1         1 8U1       0.041367
     21 H8          -5.5140    -0.6370     1.3190 hc         1 8U1       0.059367
     22 H9          -4.0270    -1.6420     1.5760 hc         1 8U1       0.059367
     23 H10         -4.0700    -0.0820     2.2660 hc         1 8U1       0.059367
     24 H11         -1.7410    -0.1180    -1.8100 h1         1 8U1       0.059700
     25 H12         -1.7860     1.5060    -1.0910 h1         1 8U1       0.059700
     26 H13          0.1520    -1.6610    -1.3550 ha         1 8U1       0.115500
@<TRIPOS>BOND
     1     1     9 1   
     2     1    10 1   
     3     1    14 1   
     4     2     3 ar  
     5     2    10 1   
     6     2    11 ar  
     7     3     4 ar  
     8     3    15 1   
     9     4     5 ar  
    10     4    16 1   
    11     5     6 ar  
    12     5    12 1   
    13     6    11 ar  
    14     6    17 1   
    15     7    12 1   
    16     7    18 1   
    17     7    19 1   
    18     7    20 1   
    19     8     9 1   
    20     8    21 1   
    21     8    22 1   
    22     8    23 1   
    23     9    13 2   
    24    10    24 1   
    25    10    25 1   
    26    11    26 1   
@<TRIPOS>SUBSTRUCTURE
     1 8U1         1 TEMP              0 ****  ****    0 ROOT
