@<TRIPOS>MOLECULE
8U2
   79    84     1     0     0
SMALL
No Charge or Current Charge


@<TRIPOS>ATOM
      1 CAN        -18.2020   -11.0500    38.9890 c6         1 8U2      -0.070400
      2 CAM        -18.3270   -10.5710    40.4530 c6         1 8U2       0.005600
      3 CAS        -19.7100    -9.8610    40.6350 c6         1 8U2      -0.072400
      4 CAH        -18.1460   -11.7500    41.4510 ca         1 8U2      -0.228300
      5 CAI        -17.8820   -11.5430    42.8180 ca         1 8U2       0.363000
      6 NAL        -17.7220   -10.2640    43.2910 nv         1 8U2      -1.097000
      7 CAB        -17.8120   -12.6540    43.6880 ca         1 8U2      -0.142000
      8 CAA        -17.5960   -12.5080    45.0820 ca         1 8U2      -0.075000
      9 CAF        -17.5490   -13.6370    45.9150 ca         1 8U2      -0.116000
     10 CAE        -17.7140   -14.9150    45.3680 ca         1 8U2       0.138000
     11 Cl1        -17.6600   -16.3310    46.4100 cl         1 8U2      -0.196000
     12 CAD        -17.9260   -15.0670    43.9920 ca         1 8U2      -0.092000
     13 CAC        -17.9800   -13.9490    43.1430 ca         1 8U2       0.310000
     14 NAJ        -18.2040   -14.1480    41.8320 nb         1 8U2      -0.718000
     15 CAG        -18.2900   -13.0850    41.0130 ca         1 8U2       0.422300
     16 CAP        -18.6090   -13.4380    39.5580 c6         1 8U2      -0.134700
     17 CAO        -19.1870   -12.2290    38.7840 c6         1 8U2      -0.057700
     18 CAQ        -20.6330   -11.9010    39.3010 c6         1 8U2      -0.068400
     19 CAR        -20.8340   -10.4080    39.6910 c6         1 8U2      -0.052700
     20 CAT        -22.2920   -10.0780    40.1600 c3         1 8U2      -0.069400
     21 CAU        -22.9780   -10.9420    41.2630 c3         1 8U2      -0.076400
     22 CAV        -22.4640   -10.7760    42.7190 c3         1 8U2      -0.084400
     23 CAW        -21.3850   -11.7920    43.1700 c3         1 8U2       0.078600
     24 NAZ        -21.8670   -13.1700    43.3480 na         1 8U2       0.130800
     25 CAX        -21.5520   -14.2610    42.5820 cc         1 8U2      -0.188000
     26 NBA        -22.6660   -13.5130    44.3990 nc         1 8U2      -0.215800
     27 NBB        -22.8680   -14.8020    44.3080 nd         1 8U2      -0.360000
     28 CAY        -22.1960   -15.2870    43.2070 cd         1 8U2       0.208300
     29 CBC        -22.1870   -16.7430    42.8440 c3         1 8U2      -0.175700
     30 CBD        -21.8510   -16.9450    41.3720 c          1 8U2       0.604100
     31 OBM        -22.6900   -16.8490    40.4890 o          1 8U2      -0.598100
     32 NBL        -20.5240   -17.1980    41.1100 ns         1 8U2      -0.510900
     33 CBE        -19.9560   -17.3770    39.7760 c3         1 8U2       0.159300
     34 CBF        -19.8250   -18.8510    39.4250 ca         1 8U2      -0.118300
     35 CBK        -20.9260   -19.5500    38.8900 ca         1 8U2      -0.120000
     36 CBG        -18.6080   -19.5260    39.6410 ca         1 8U2      -0.096000
     37 CBH        -18.4890   -20.8890    39.3210 ca         1 8U2      -0.129000
     38 CBI        -19.5850   -21.5830    38.7860 ca         1 8U2       0.126100
     39 OBN        -19.4680   -22.9070    38.4770 oh         1 8U2      -0.535100
     40 CBJ        -20.8110   -20.9210    38.5680 ca         1 8U2       0.044100
     41 OBO        -21.8640   -21.6530    38.0410 os         1 8U2      -0.369100
     42 CBP        -23.1560   -21.0680    37.7880 c3         1 8U2       0.155900
     43 H1         -18.4160   -10.2290    38.2900 hc         1 8U2       0.046200
     44 H2         -17.1700   -11.3660    38.7780 hc         1 8U2       0.046200
     45 H3         -17.5320    -9.8330    40.6280 hc         1 8U2       0.037700
     46 H4         -20.0140    -9.8840    41.6850 hc         1 8U2       0.039700
     47 H5         -19.5830    -8.7920    40.4140 hc         1 8U2       0.039700
     48 H6         -17.3150   -10.1190    44.2100 hn         1 8U2       0.475500
     49 H7         -17.6420    -9.5000    42.6270 hn         1 8U2       0.475500
     50 H8         -17.4710   -11.5290    45.5380 ha         1 8U2       0.109000
     51 H9         -17.3870   -13.5210    46.9830 ha         1 8U2       0.132000
     52 H10        -18.0540   -16.0610    43.5770 ha         1 8U2       0.145000
     53 H11        -17.6880   -13.7840    39.0710 hc         1 8U2       0.068200
     54 H12        -19.3110   -14.2820    39.5130 hc         1 8U2       0.068200
     55 H13        -19.2320   -12.4750    37.7140 hc         1 8U2       0.055700
     56 H14        -21.3630   -12.1790    38.5280 hc         1 8U2       0.047200
     57 H15        -20.8760   -12.5290    40.1650 hc         1 8U2       0.047200
     58 H16        -20.7350    -9.8410    38.7540 hc         1 8U2       0.039700
     59 H17        -22.3410    -9.0260    40.4660 hc         1 8U2       0.037700
     60 H18        -22.9400   -10.1420    39.2760 hc         1 8U2       0.037700
     61 H19        -24.0370   -10.6530    41.2680 hc         1 8U2       0.050200
     62 H20        -22.9770   -12.0010    40.9770 hc         1 8U2       0.050200
     63 H21        -22.0790    -9.7580    42.8510 hc         1 8U2       0.057200
     64 H22        -23.3160   -10.8590    43.4050 hc         1 8U2       0.057200
     65 H23        -20.5780   -11.8200    42.4360 h1         1 8U2       0.066700
     66 H24        -20.9550   -11.4600    44.1230 h1         1 8U2       0.066700
     67 H25        -20.9160   -14.2290    41.7110 h4         1 8U2       0.178000
     68 H26        -21.4330   -17.2380    43.4650 hc         1 8U2       0.072700
     69 H27        -23.1760   -17.1700    43.0410 hc         1 8U2       0.072700
     70 H28        -19.9010   -17.2480    41.9060 hn         1 8U2       0.312500
     71 H29        -20.5820   -16.8680    39.0310 h1         1 8U2       0.055200
     72 H30        -18.9660   -16.9010    39.7530 h1         1 8U2       0.055200
     73 H31        -21.8590   -19.0140    38.7340 ha         1 8U2       0.128000
     74 H32        -17.7550   -18.9960    40.0570 ha         1 8U2       0.110000
     75 H33        -17.5480   -21.4070    39.4880 ha         1 8U2       0.129000
     76 H34        -20.3430   -23.1860    38.1240 ho         1 8U2       0.481000
     77 H35        -23.8390   -21.8190    37.3740 h1         1 8U2       0.043033
     78 H36        -23.5970   -20.6810    38.7160 h1         1 8U2       0.043033
     79 H37        -23.0770   -20.2460    37.0650 h1         1 8U2       0.043033
@<TRIPOS>BOND
     1     1     2 1   
     2     1    17 1   
     3     1    43 1   
     4     1    44 1   
     5     2     3 1   
     6     2     4 1   
     7     2    45 1   
     8     3    19 1   
     9     3    46 1   
    10     3    47 1   
    11     4     5 ar  
    12     4    15 ar  
    13     5     6 1   
    14     5     7 ar  
    15     6    48 1   
    16     6    49 1   
    17     7     8 ar  
    18     7    13 ar  
    19     8     9 ar  
    20     8    50 1   
    21     9    10 ar  
    22     9    51 1   
    23    10    11 1   
    24    10    12 ar  
    25    12    13 ar  
    26    12    52 1   
    27    13    14 ar  
    28    14    15 ar  
    29    15    16 1   
    30    16    17 1   
    31    16    53 1   
    32    16    54 1   
    33    17    18 1   
    34    17    55 1   
    35    18    19 1   
    36    18    56 1   
    37    18    57 1   
    38    19    20 1   
    39    19    58 1   
    40    20    21 1   
    41    20    59 1   
    42    20    60 1   
    43    21    22 1   
    44    21    61 1   
    45    21    62 1   
    46    22    23 1   
    47    22    63 1   
    48    22    64 1   
    49    23    24 1   
    50    23    65 1   
    51    23    66 1   
    52    24    25 1   
    53    24    26 1   
    54    25    28 2   
    55    25    67 1   
    56    26    27 2   
    57    27    28 1   
    58    28    29 1   
    59    29    30 1   
    60    29    68 1   
    61    29    69 1   
    62    30    31 2   
    63    30    32 1   
    64    32    33 1   
    65    32    70 1   
    66    33    34 1   
    67    33    71 1   
    68    33    72 1   
    69    34    35 ar  
    70    34    36 ar  
    71    35    40 ar  
    72    35    73 1   
    73    36    37 ar  
    74    36    74 1   
    75    37    38 ar  
    76    37    75 1   
    77    38    39 1   
    78    38    40 ar  
    79    39    76 1   
    80    40    41 1   
    81    41    42 1   
    82    42    77 1   
    83    42    78 1   
    84    42    79 1   
@<TRIPOS>SUBSTRUCTURE
     1 8U2         1 TEMP              0 ****  ****    0 ROOT
