@<TRIPOS>MOLECULE
8U2
   79    84     1     0     0
SMALL
abcg2


@<TRIPOS>ATOM
      1 CAN        -18.4350   -10.3680    39.0860 c6         1 8U2      -0.070400
      2 CAM        -18.8390   -10.0200    40.5100 c6         1 8U2       0.005600
      3 CAS        -20.3830    -9.8940    40.5680 c6         1 8U2      -0.072400
      4 CAH        -18.3130   -11.0490    41.4920 ca         1 8U2      -0.228300
      5 CAI        -18.2790   -10.7550    42.8560 ca         1 8U2       0.363000
      6 NAL        -18.7100    -9.5610    43.3310 nv         1 8U2      -1.097000
      7 CAB        -17.8510   -11.7760    43.7640 ca         1 8U2      -0.142000
      8 CAA        -17.8430   -11.6240    45.1670 ca         1 8U2      -0.075000
      9 CAF        -17.4610   -12.6450    45.9950 ca         1 8U2      -0.116000
     10 CAE        -17.0710   -13.8720    45.4300 ca         1 8U2       0.138000
     11 CL1        -16.6030   -15.1630    46.4860 cl         1 8U2      -0.196000
     12 CAD        -17.0620   -14.0640    44.0790 ca         1 8U2      -0.092000
     13 CAC        -17.4580   -13.0170    43.2140 ca         1 8U2       0.310000
     14 NAJ        -17.4700   -13.2740    41.8920 nb         1 8U2      -0.718000
     15 CAG        -17.8860   -12.3280    41.0760 ca         1 8U2       0.422300
     16 CAP        -17.8990   -12.6950    39.6150 c6         1 8U2      -0.134700
     17 CAO        -18.8530   -11.8130    38.8260 c6         1 8U2      -0.057700
     18 CAQ        -20.3120   -12.0740    39.2750 c6         1 8U2      -0.068400
     19 CAR        -21.0910   -10.7880    39.5350 c6         1 8U2      -0.052700
     20 CAT        -22.5740   -11.0360    39.8380 c3         1 8U2      -0.069400
     21 CAU        -22.9790   -12.0590    40.9070 c3         1 8U2      -0.076400
     22 CAV        -22.8030   -11.6480    42.3760 c3         1 8U2      -0.084400
     23 CAW        -21.5630   -12.1860    43.0750 c3         1 8U2       0.078600
     24 NAZ        -21.5860   -13.6300    43.2460 na         1 8U2       0.130800
     25 CAX        -20.6790   -14.5270    42.8310 cc         1 8U2      -0.188000
     26 NBA        -22.5530   -14.2170    43.9250 nc         1 8U2      -0.215800
     27 NBB        -22.3000   -15.4830    43.9610 nd         1 8U2      -0.360000
     28 CAY        -21.1490   -15.7270    43.3010 cd         1 8U2       0.208300
     29 CBC        -20.5530   -17.0820    43.1890 c3         1 8U2      -0.175700
     30 CBD        -20.2480   -17.4790    41.7520 c          1 8U2       0.604100
     31 OBM        -20.7970   -16.9540    40.7980 o          1 8U2      -0.598100
     32 NBL        -19.3380   -18.4580    41.6270 ns         1 8U2      -0.510900
     33 CBE        -18.9870   -19.0420    40.3490 c3         1 8U2       0.159300
     34 CBF        -20.0150   -20.0170    39.8310 ca         1 8U2      -0.118300
     35 CBK        -20.8510   -19.6640    38.7720 ca         1 8U2      -0.120000
     36 CBG        -20.1510   -21.2720    40.4040 ca         1 8U2      -0.096000
     37 CBH        -21.1060   -22.1660    39.9340 ca         1 8U2      -0.129000
     38 CBI        -21.9350   -21.8180    38.8800 ca         1 8U2       0.126100
     39 OBN        -22.8510   -22.7050    38.4390 oh         1 8U2      -0.535100
     40 CBJ        -21.8010   -20.5510    38.2910 ca         1 8U2       0.044100
     41 OBO        -22.6500   -20.3090    37.2680 os         1 8U2      -0.369100
     42 CBP        -22.6500   -19.0230    36.6810 c3         1 8U2       0.155900
     43 H1         -18.9060    -9.6720    38.3870 hc         1 8U2       0.046200
     44 H2         -17.3550   -10.2630    38.9470 hc         1 8U2       0.046200
     45 H3         -18.4020    -9.0470    40.7610 hc         1 8U2       0.037700
     46 H4         -20.7380   -10.1000    41.5780 hc         1 8U2       0.039700
     47 H5         -20.6630    -8.8560    40.3710 hc         1 8U2       0.039700
     48 H6         -18.4420    -9.2630    44.2530 hn         1 8U2       0.475500
     49 H7         -18.8320    -8.7970    42.6870 hn         1 8U2       0.475500
     50 H8         -18.1520   -10.6960    45.6310 ha         1 8U2       0.109000
     51 H9         -17.4660   -12.5140    47.0680 ha         1 8U2       0.132000
     52 H10        -16.7700   -15.0100    43.6420 ha         1 8U2       0.145000
     53 H11        -16.8820   -12.5990    39.2200 hc         1 8U2       0.068200
     54 H12        -18.1660   -13.7510    39.5260 hc         1 8U2       0.068200
     55 H13        -18.7510   -12.0390    37.7630 hc         1 8U2       0.055700
     56 H14        -20.8310   -12.6690    38.5180 hc         1 8U2       0.047200
     57 H15        -20.3140   -12.6890    40.1810 hc         1 8U2       0.047200
     58 H16        -21.0880   -10.2300    38.5910 hc         1 8U2       0.039700
     59 H17        -23.0480   -10.0770    40.0760 hc         1 8U2       0.037700
     60 H18        -23.0370   -11.3640    38.9020 hc         1 8U2       0.037700
     61 H19        -24.0410   -12.2550    40.7480 hc         1 8U2       0.050200
     62 H20        -22.4900   -13.0200    40.7170 hc         1 8U2       0.050200
     63 H21        -22.7770   -10.5590    42.4620 hc         1 8U2       0.057200
     64 H22        -23.6750   -11.9620    42.9540 hc         1 8U2       0.057200
     65 H23        -20.6580   -11.9640    42.5150 h1         1 8U2       0.066700
     66 H24        -21.4530   -11.7320    44.0610 h1         1 8U2       0.066700
     67 H25        -19.8070   -14.2620    42.2580 h4         1 8U2       0.178000
     68 H26        -19.6470   -17.1570    43.7970 hc         1 8U2       0.072700
     69 H27        -21.2530   -17.8140    43.6000 hc         1 8U2       0.072700
     70 H28        -18.9420   -18.8690    42.4570 hn         1 8U2       0.312500
     71 H29        -18.8240   -18.2450    39.6220 h1         1 8U2       0.055200
     72 H30        -18.0300   -19.5460    40.4850 h1         1 8U2       0.055200
     73 H31        -20.7440   -18.6820    38.3280 ha         1 8U2       0.128000
     74 H32        -19.5090   -21.5690    41.2250 ha         1 8U2       0.110000
     75 H33        -21.2090   -23.1460    40.3840 ha         1 8U2       0.129000
     76 H34        -23.3660   -22.3200    37.7190 ho         1 8U2       0.481000
     77 H35        -23.4290   -19.0270    35.9230 h1         1 8U2       0.043033
     78 H36        -22.8710   -18.2440    37.4140 h1         1 8U2       0.043033
     79 H37        -21.6940   -18.7960    36.2020 h1         1 8U2       0.043033
@<TRIPOS>BOND
     1     1     2 1   
     2     1    17 1   
     3     1    43 1   
     4     1    44 1   
     5     2     3 1   
     6     2     4 1   
     7     2    45 1   
     8     3    19 1   
     9     3    46 1   
    10     3    47 1   
    11     4     5 ar  
    12     4    15 ar  
    13     5     6 1   
    14     5     7 ar  
    15     6    48 1   
    16     6    49 1   
    17     7     8 ar  
    18     7    13 ar  
    19     8     9 ar  
    20     8    50 1   
    21     9    10 ar  
    22     9    51 1   
    23    10    11 1   
    24    10    12 ar  
    25    12    13 ar  
    26    12    52 1   
    27    13    14 ar  
    28    14    15 ar  
    29    15    16 1   
    30    16    17 1   
    31    16    53 1   
    32    16    54 1   
    33    17    18 1   
    34    17    55 1   
    35    18    19 1   
    36    18    56 1   
    37    18    57 1   
    38    19    20 1   
    39    19    58 1   
    40    20    21 1   
    41    20    59 1   
    42    20    60 1   
    43    21    22 1   
    44    21    61 1   
    45    21    62 1   
    46    22    23 1   
    47    22    63 1   
    48    22    64 1   
    49    23    24 1   
    50    23    65 1   
    51    23    66 1   
    52    24    25 1   
    53    24    26 1   
    54    25    28 2   
    55    25    67 1   
    56    26    27 2   
    57    27    28 1   
    58    28    29 1   
    59    29    30 1   
    60    29    68 1   
    61    29    69 1   
    62    30    31 2   
    63    30    32 1   
    64    32    33 1   
    65    32    70 1   
    66    33    34 1   
    67    33    71 1   
    68    33    72 1   
    69    34    35 ar  
    70    34    36 ar  
    71    35    40 ar  
    72    35    73 1   
    73    36    37 ar  
    74    36    74 1   
    75    37    38 ar  
    76    37    75 1   
    77    38    39 1   
    78    38    40 ar  
    79    39    76 1   
    80    40    41 1   
    81    41    42 1   
    82    42    77 1   
    83    42    78 1   
    84    42    79 1   
@<TRIPOS>SUBSTRUCTURE
     1 8U2         1 TEMP              0 ****  ****    0 ROOT
