@<TRIPOS>MOLECULE
8U3
   20    20     1     0     0
SMALL
bcc


@<TRIPOS>ATOM
      1 C1          -2.4500    -1.0830     1.3300 c3         1 8U3      -0.272300
      2 S2          -2.4750     0.1900     0.0910 s6         1 8U3       1.216900
      3 N3          -1.3300    -0.2390    -1.0420 nu         1 8U3      -0.676500
      4 C4           0.0300    -0.3250    -0.6570 ca         1 8U3       0.106600
      5 C5           0.7530     0.8440    -0.4320 ca         1 8U3      -0.122000
      6 C6           2.0790     0.7480    -0.0720 ca         1 8U3       0.113900
      7 F7           2.7940     1.8540     0.1490 f          1 8U3      -0.114900
      8 C8           2.6990    -0.4850     0.0470 ca         1 8U3       0.099900
      9 F9           3.9880    -0.5340     0.3930 f          1 8U3      -0.118900
     10 C10          1.9920    -1.6430    -0.1950 ca         1 8U3      -0.134000
     11 C11          0.6500    -1.5630    -0.5370 ca         1 8U3      -0.152000
     12 O12         -3.7480     0.1460    -0.6060 o          1 8U3      -0.590300
     13 O13         -2.0320     1.4300     0.7050 o          1 8U3      -0.590300
     14 H1          -1.4550    -1.1470     1.7660 h1         1 8U3       0.104367
     15 H2          -3.1700    -0.8100     2.1000 h1         1 8U3       0.104367
     16 H3          -2.7290    -2.0330     0.8790 h1         1 8U3       0.104367
     17 H4          -1.6510    -1.0090    -1.6190 hn         1 8U3       0.434800
     18 H5           0.3000     1.8180    -0.5560 ha         1 8U3       0.186000
     19 H6           2.4820    -2.6040    -0.1030 ha         1 8U3       0.159000
     20 H7           0.0900    -2.4720    -0.7160 ha         1 8U3       0.140000
@<TRIPOS>BOND
     1     1     2 1   
     2     1    14 1   
     3     1    15 1   
     4     1    16 1   
     5     2     3 1   
     6     2    12 2   
     7     2    13 2   
     8     3     4 1   
     9     3    17 1   
    10     4     5 ar  
    11     4    11 ar  
    12     5     6 ar  
    13     5    18 1   
    14     6     7 1   
    15     6     8 ar  
    16     8     9 1   
    17     8    10 ar  
    18    10    11 ar  
    19    10    19 1   
    20    11    20 1   
@<TRIPOS>SUBSTRUCTURE
     1 8U3         1 TEMP              0 ****  ****    0 ROOT
