@<TRIPOS>MOLECULE
8U3
   20    20     1     0     0
SMALL
No Charge or Current Charge


@<TRIPOS>ATOM
      1 C1          -2.4950    -0.4170     1.5630 c3         1 8U3      -0.383100
      2 S2          -2.6170     0.0920    -0.1390 s6         1 8U3       1.186100
      3 N3          -1.3240    -0.6310    -0.8930 nu         1 8U3      -0.870100
      4 C4           0.0380    -0.5720    -0.5940 ca         1 8U3       0.245000
      5 C5           0.6190     0.4950     0.1230 ca         1 8U3      -0.104000
      6 C6           1.9980     0.4990     0.3900 ca         1 8U3       0.149000
      7 F7           2.5400     1.5290     1.0790 f          1 8U3      -0.150000
      8 C8           2.8110    -0.5580    -0.0580 ca         1 8U3       0.135000
      9 F9           4.1400    -0.5580     0.1970 f          1 8U3      -0.154000
     10 C10          2.2420    -1.6200    -0.7790 ca         1 8U3      -0.116000
     11 C11          0.8600    -1.6210    -1.0460 ca         1 8U3      -0.134000
     12 O12         -3.7980    -0.5310    -0.7360 o          1 8U3      -0.519500
     13 O13         -2.4060     1.5370    -0.2360 o          1 8U3      -0.519500
     14 H1          -1.5500    -0.0370     1.9610 h1         1 8U3       0.104367
     15 H2          -3.3500     0.0140     2.0940 h1         1 8U3       0.104367
     16 H3          -2.5260    -1.5110     1.5840 h1         1 8U3       0.104367
     17 H4          -1.6860    -1.4740    -1.3200 hn         1 8U3       0.490000
     18 H5           0.0220     1.3290     0.4710 ha         1 8U3       0.168000
     19 H6           2.8700    -2.4360    -1.1290 ha         1 8U3       0.141000
     20 H7           0.4280    -2.4460    -1.6060 ha         1 8U3       0.122000
@<TRIPOS>BOND
     1     1     2 1   
     2     1    14 1   
     3     1    15 1   
     4     1    16 1   
     5     2     3 1   
     6     2    12 2   
     7     2    13 2   
     8     3     4 1   
     9     3    17 1   
    10     4     5 ar  
    11     4    11 ar  
    12     5     6 ar  
    13     5    18 1   
    14     6     7 1   
    15     6     8 ar  
    16     8     9 1   
    17     8    10 ar  
    18    10    11 ar  
    19    10    19 1   
    20    11    20 1   
@<TRIPOS>SUBSTRUCTURE
     1 8U3         1 TEMP              0 ****  ****    0 ROOT
