@<TRIPOS>MOLECULE
8U4
   22    22     1     0     0
SMALL
No Charge or Current Charge


@<TRIPOS>ATOM
      1 N1          -2.2550     0.1180     0.1300 ns         1 8U4      -0.510900
      2 C4           0.0140    -0.6080    -0.4740 ca         1 8U4      -0.104300
      3 C5           0.3250    -1.9430    -0.1480 ca         1 8U4      -0.098000
      4 C6           1.6080    -2.2790     0.3210 ca         1 8U4      -0.104000
      5 C7           2.5860    -1.2790     0.4680 ca         1 8U4      -0.096000
      6 C8           2.2790     0.0530     0.1470 ca         1 8U4       0.117000
      7 C1          -4.2820     0.8410     1.2840 c3         1 8U4      -0.179100
      8 C2          -3.5610     0.5140    -0.0170 c          1 8U4       0.599100
      9 C3          -1.3750    -0.2450    -0.9770 c3         1 8U4       0.147300
     10 C9           0.9980     0.3890    -0.3220 ca         1 8U4      -0.089000
     11 Cl1          3.5010     1.3040     0.3330 cl         1 8U4      -0.202000
     12 O1          -4.1020     0.5970    -1.1100 o          1 8U4      -0.606100
     13 H1          -1.8880     0.0760     1.0730 hn         1 8U4       0.315500
     14 H2          -0.4270    -2.7220    -0.2570 ha         1 8U4       0.119000
     15 H3           1.8430    -3.3110     0.5710 ha         1 8U4       0.120000
     16 H4           3.5780    -1.5360     0.8310 ha         1 8U4       0.131000
     17 H5          -5.3210     1.1520     1.1250 hc         1 8U4       0.060700
     18 H6          -4.2170    -0.0230     1.9550 hc         1 8U4       0.060700
     19 H7          -3.7100     1.6010     1.8280 hc         1 8U4       0.060700
     20 H8          -1.8110    -1.0960    -1.5170 h1         1 8U4       0.061700
     21 H9          -1.3090     0.6010    -1.6750 h1         1 8U4       0.061700
     22 H10          0.7700     1.4240    -0.5660 ha         1 8U4       0.136000
@<TRIPOS>BOND
     1     1     8 1   
     2     1     9 1   
     3     1    13 1   
     4     2     3 ar  
     5     2     9 1   
     6     2    10 ar  
     7     3     4 ar  
     8     3    14 1   
     9     4     5 ar  
    10     4    15 1   
    11     5     6 ar  
    12     5    16 1   
    13     6    10 ar  
    14     6    11 1   
    15     7     8 1   
    16     7    17 1   
    17     7    18 1   
    18     7    19 1   
    19     8    12 2   
    20     9    20 1   
    21     9    21 1   
    22    10    22 1   
@<TRIPOS>SUBSTRUCTURE
     1 8U4         1 TEMP              0 ****  ****    0 ROOT
