@<TRIPOS>MOLECULE
8U4
   22    22     1     0     0
SMALL
bcc


@<TRIPOS>ATOM
      1 N1          -2.2560    -0.0330     0.2120 ns         1 8U4      -0.577900
      2 C4          -0.0470    -0.7900    -0.4330 ca         1 8U4      -0.104300
      3 C5           0.5070    -2.0510    -0.2560 ca         1 8U4      -0.116000
      4 C6           1.8290    -2.1880     0.1480 ca         1 8U4      -0.122000
      5 C7           2.6140    -1.0700     0.3840 ca         1 8U4      -0.114000
      6 C8           2.0510     0.1850     0.2040 ca         1 8U4       0.025400
      7 C1          -4.1300     1.0750     1.2510 c3         1 8U4      -0.179100
      8 C2          -3.4330     0.5840     0.0070 c          1 8U4       0.666100
      9 C3          -1.4810    -0.6270    -0.8570 c3         1 8U4       0.147300
     10 C9           0.7360     0.3390    -0.1990 ca         1 8U4      -0.107000
     11 CL1          3.0190     1.5970     0.4890 cl         1 8U4      -0.110400
     12 O1          -3.9140     0.7310    -1.1090 o          1 8U4      -0.606100
     13 H1          -1.9510    -0.1980     1.1570 hn         1 8U4       0.315500
     14 H2          -0.0950    -2.9330    -0.4330 ha         1 8U4       0.137000
     15 H3           2.2540    -3.1740     0.2850 ha         1 8U4       0.138000
     16 H4           3.6430    -1.1750     0.7000 ha         1 8U4       0.149000
     17 H5          -4.4850     2.0920     1.0940 hc         1 8U4       0.060700
     18 H6          -5.0050     0.4510     1.4410 hc         1 8U4       0.060700
     19 H7          -3.5020     1.0560     2.1390 hc         1 8U4       0.060700
     20 H8          -1.8930    -1.5970    -1.1490 h1         1 8U4       0.061700
     21 H9          -1.5380     0.0220    -1.7330 h1         1 8U4       0.061700
     22 H10          0.3220     1.3290    -0.3390 ha         1 8U4       0.154000
@<TRIPOS>BOND
     1     1     8 1   
     2     1     9 1   
     3     1    13 1   
     4     2     3 ar  
     5     2     9 1   
     6     2    10 ar  
     7     3     4 ar  
     8     3    14 1   
     9     4     5 ar  
    10     4    15 1   
    11     5     6 ar  
    12     5    16 1   
    13     6    10 ar  
    14     6    11 1   
    15     7     8 1   
    16     7    17 1   
    17     7    18 1   
    18     7    19 1   
    19     8    12 2   
    20     9    20 1   
    21     9    21 1   
    22    10    22 1   
@<TRIPOS>SUBSTRUCTURE
     1 8U4         1 TEMP              0 ****  ****    0 ROOT
