@<TRIPOS>MOLECULE
8U5
   88    92     1     0     0
SMALL
No Charge or Current Charge


@<TRIPOS>ATOM
      1 CAK        138.7620   155.3710    68.4810 c6         1 8U5      -0.068400
      2 CAL        139.0350   155.6450    69.9760 c6         1 8U5      -0.055700
      3 CAM        140.0920   154.6310    70.5000 c6         1 8U5      -0.131700
      4 CBP        139.4580   157.1330    70.1770 c6         1 8U5      -0.066400
      5 CAQ        140.6640   157.5500    69.2890 c6         1 8U5      -0.060700
      6 CAR        140.9660   159.0660    69.4190 c3         1 8U5      -0.088100
      7 CAP        140.4150   157.1470    67.8070 c6         1 8U5      -0.069400
      8 CAJ        140.0560   155.6420    67.6750 c6         1 8U5      -0.000400
      9 CAH        141.2010   154.7180    68.1650 ca         1 8U5      -0.229300
     10 CAG        141.1870   154.2480    69.4920 ca         1 8U5       0.423300
     11 NAN        142.1030   153.3930    69.9820 nb         1 8U5      -0.714000
     12 CAF        143.0690   152.9290    69.1690 ca         1 8U5       0.313000
     13 CAA        143.9850   151.9950    69.6830 ca         1 8U5      -0.093000
     14 CAB        144.9850   151.4460    68.8710 ca         1 8U5       0.136000
     15 Cl         146.1140   150.2730    69.5360 cl         1 8U5      -0.203000
     16 CAC        145.0740   151.8160    67.5250 ca         1 8U5      -0.129000
     17 CAD        144.1730   152.7530    66.9970 ca         1 8U5      -0.069000
     18 CAE        143.1790   153.3400    67.8190 ca         1 8U5      -0.127000
     19 CAI        142.2650   154.3090    67.3340 ca         1 8U5       0.383000
     20 NAT        142.3630   154.8780    66.0530 nu         1 8U5      -0.959200
     21 CAS        143.5400   155.5480    65.4450 c3         1 8U5       0.225800
     22 CAU        144.6040   156.0760    66.4460 c3         1 8U5      -0.107400
     23 CAV        144.1180   157.1530    67.4410 c3         1 8U5      -0.077400
     24 CAW        145.2450   157.6890    68.3500 c3         1 8U5      -0.073400
     25 CBO        144.7440   158.7300    69.3740 c3         1 8U5      -0.076400
     26 CBN        145.8600   159.2550    70.3020 c3         1 8U5      -0.076400
     27 CBM        145.3470   160.2950    71.3260 c3         1 8U5      -0.075400
     28 CBL        146.4170   160.7850    72.3310 c3         1 8U5      -0.063400
     29 CBK        147.5840   161.5750    71.6890 c3         1 8U5      -0.159400
     30 CAX        148.5260   162.1460    72.7540 c          1 8U5       0.596100
     31 OAY        149.3190   161.4530    73.3750 o          1 8U5      -0.593100
     32 NAZ        148.4410   163.5050    72.9400 ns         1 8U5      -0.511900
     33 CBA        149.2510   164.2580    73.8920 c3         1 8U5       0.155300
     34 CBB        148.8910   165.7350    73.8670 ca         1 8U5      -0.097300
     35 CBC        149.4830   166.5910    72.9170 ca         1 8U5      -0.169000
     36 CBG        147.9590   166.2520    74.7840 ca         1 8U5      -0.088000
     37 CBF        147.6200   167.6150    74.7600 ca         1 8U5      -0.176000
     38 CBE        148.2100   168.4740    73.8160 ca         1 8U5       0.110100
     39 OBH        147.8620   169.7990    73.8140 oh         1 8U5      -0.515100
     40 CBD        149.1490   167.9660    72.8840 ca         1 8U5       0.115100
     41 OBI        149.7140   168.8340    71.9630 os         1 8U5      -0.320100
     42 CBJ        150.6730   168.4020    70.9820 c3         1 8U5       0.145900
     43 H1         137.9430   156.0080    68.1180 hc         1 8U5       0.045700
     44 H2         138.4350   154.3320    68.3360 hc         1 8U5       0.045700
     45 H3         138.1050   155.4860    70.5400 hc         1 8U5       0.051700
     46 H4         140.5520   155.0110    71.4220 hc         1 8U5       0.064200
     47 H5         139.5700   153.7090    70.7890 hc         1 8U5       0.064200
     48 H6         138.5980   157.7770    69.9440 hc         1 8U5       0.039700
     49 H7         139.6910   157.3160    71.2350 hc         1 8U5       0.039700
     50 H8         141.5640   157.0360    69.6540 hc         1 8U5       0.057700
     51 H9         141.2180   159.3320    70.4520 hc         1 8U5       0.032367
     52 H10        141.8130   159.3560    68.7860 hc         1 8U5       0.032367
     53 H11        140.1040   159.6730    69.1160 hc         1 8U5       0.032367
     54 H12        141.2910   157.3820    67.1910 hc         1 8U5       0.036200
     55 H13        139.5940   157.7520    67.3960 hc         1 8U5       0.036200
     56 H14        139.8290   155.4270    66.6220 hc         1 8U5       0.042700
     57 H15        143.9090   151.6860    70.7200 ha         1 8U5       0.145000
     58 H16        145.8380   151.3750    66.8890 ha         1 8U5       0.128000
     59 H17        144.2490   153.0020    65.9440 ha         1 8U5       0.116000
     60 H18        141.4760   155.2780    65.7520 hn         1 8U5       0.471000
     61 H19        144.0400   154.8490    64.7620 h1         1 8U5       0.046700
     62 H20        143.1950   156.3870    64.8240 h1         1 8U5       0.046700
     63 H21        145.0440   155.2450    67.0050 hc         1 8U5       0.053700
     64 H22        145.4240   156.5020    65.8560 hc         1 8U5       0.053700
     65 H23        143.6670   157.9860    66.8880 hc         1 8U5       0.040700
     66 H24        143.3410   156.7240    68.0810 hc         1 8U5       0.040700
     67 H25        145.7040   156.8490    68.8870 hc         1 8U5       0.040200
     68 H26        146.0280   158.1400    67.7280 hc         1 8U5       0.040200
     69 H27        144.2970   159.5760    68.8370 hc         1 8U5       0.037200
     70 H28        143.9520   158.2800    69.9850 hc         1 8U5       0.037200
     71 H29        146.3090   158.4110    70.8400 hc         1 8U5       0.039700
     72 H30        146.6500   159.7020    69.6870 hc         1 8U5       0.039700
     73 H31        144.9330   161.1590    70.7900 hc         1 8U5       0.038200
     74 H32        144.5190   159.8530    71.8930 hc         1 8U5       0.038200
     75 H33        146.8170   159.9240    72.8830 hc         1 8U5       0.054700
     76 H34        145.9230   161.4260    73.0730 hc         1 8U5       0.054700
     77 H35        147.1630   162.3900    71.0880 hc         1 8U5       0.055200
     78 H36        148.1600   160.8990    71.0470 hc         1 8U5       0.055200
     79 H37        147.7640   164.0080    72.3800 hn         1 8U5       0.312500
     80 H38        149.0910   163.8500    74.9000 h1         1 8U5       0.059200
     81 H39        150.3120   164.1290    73.6400 h1         1 8U5       0.059200
     82 H40        150.1970   166.1720    72.2140 ha         1 8U5       0.116000
     83 H41        147.4940   165.5960    75.5170 ha         1 8U5       0.116000
     84 H42        146.8980   167.9980    75.4770 ha         1 8U5       0.113000
     85 H43        147.2070   169.9510    74.5270 ho         1 8U5       0.458000
     86 H44        150.9870   169.2480    70.3590 h1         1 8U5       0.038700
     87 H45        151.5660   167.9870    71.4660 h1         1 8U5       0.038700
     88 H46        150.2410   167.6370    70.3240 h1         1 8U5       0.038700
@<TRIPOS>BOND
     1     1     2 1   
     2     1     8 1   
     3     1    43 1   
     4     1    44 1   
     5     2     3 1   
     6     2     4 1   
     7     2    45 1   
     8     3    10 1   
     9     3    46 1   
    10     3    47 1   
    11     4     5 1   
    12     4    48 1   
    13     4    49 1   
    14     5     6 1   
    15     5     7 1   
    16     5    50 1   
    17     6    51 1   
    18     6    52 1   
    19     6    53 1   
    20     7     8 1   
    21     7    54 1   
    22     7    55 1   
    23     8     9 1   
    24     8    56 1   
    25     9    10 ar  
    26     9    19 ar  
    27    10    11 ar  
    28    11    12 ar  
    29    12    13 ar  
    30    12    18 ar  
    31    13    14 ar  
    32    13    57 1   
    33    14    15 1   
    34    14    16 ar  
    35    16    17 ar  
    36    16    58 1   
    37    17    18 ar  
    38    17    59 1   
    39    18    19 ar  
    40    19    20 1   
    41    20    21 1   
    42    20    60 1   
    43    21    22 1   
    44    21    61 1   
    45    21    62 1   
    46    22    23 1   
    47    22    63 1   
    48    22    64 1   
    49    23    24 1   
    50    23    65 1   
    51    23    66 1   
    52    24    25 1   
    53    24    67 1   
    54    24    68 1   
    55    25    26 1   
    56    25    69 1   
    57    25    70 1   
    58    26    27 1   
    59    26    71 1   
    60    26    72 1   
    61    27    28 1   
    62    27    73 1   
    63    27    74 1   
    64    28    29 1   
    65    28    75 1   
    66    28    76 1   
    67    29    30 1   
    68    29    77 1   
    69    29    78 1   
    70    30    31 2   
    71    30    32 1   
    72    32    33 1   
    73    32    79 1   
    74    33    34 1   
    75    33    80 1   
    76    33    81 1   
    77    34    35 ar  
    78    34    36 ar  
    79    35    40 ar  
    80    35    82 1   
    81    36    37 ar  
    82    36    83 1   
    83    37    38 ar  
    84    37    84 1   
    85    38    39 1   
    86    38    40 ar  
    87    39    85 1   
    88    40    41 1   
    89    41    42 1   
    90    42    86 1   
    91    42    87 1   
    92    42    88 1   
@<TRIPOS>SUBSTRUCTURE
     1 8U5         1 TEMP              0 ****  ****    0 ROOT
