@<TRIPOS>MOLECULE
8U5
   88    92     1     0     0
SMALL
bcc


@<TRIPOS>ATOM
      1 CAK        138.7460   155.2090    67.8380 c6         1 8U5      -0.068400
      2 CAL        138.5670   155.3890    69.3380 c6         1 8U5      -0.055700
      3 CAM        139.3450   154.2870    70.0510 c6         1 8U5      -0.131700
      4 CBP        138.9830   156.8020    69.7540 c6         1 8U5      -0.066400
      5 CAQ        140.3970   157.1860    69.3230 c6         1 8U5      -0.060700
      6 CAR        140.6830   158.6490    69.6320 c3         1 8U5      -0.088100
      7 CAP        140.5910   156.8880    67.8400 c6         1 8U5      -0.069400
      8 CAJ        140.2140   155.4380    67.4870 c6         1 8U5      -0.000400
      9 CAH        141.0920   154.4330    68.2050 ca         1 8U5      -0.294600
     10 CAG        140.6750   153.9110    69.4450 ca         1 8U5       0.488600
     11 NAN        141.3770   153.0590    70.1630 nb         1 8U5      -0.714000
     12 CAF        142.5260   152.5920    69.6470 ca         1 8U5       0.443600
     13 CAA        143.2140   151.6050    70.3950 ca         1 8U5      -0.176300
     14 CAB        144.3320   151.0150    69.8830 ca         1 8U5       0.044400
     15 CL         145.1590   149.7920    70.7910 cl         1 8U5      -0.111400
     16 CAC        144.8230   151.3620    68.6130 ca         1 8U5      -0.147000
     17 CAD        144.1880   152.3400    67.8990 ca         1 8U5      -0.087000
     18 CAE        143.0470   153.0120    68.3970 ca         1 8U5      -0.192300
     19 CAI        142.3370   154.0420    67.6950 ca         1 8U5       0.244600
     20 NAT        142.7980   154.6000    66.5400 nu         1 8U5      -0.765600
     21 CAS        144.1760   154.8880    66.1560 c3         1 8U5       0.225800
     22 CAU        145.0520   155.5070    67.2390 c3         1 8U5      -0.107400
     23 CAV        144.4610   156.7680    67.8530 c3         1 8U5      -0.077400
     24 CAW        145.4480   157.5230    68.7320 c3         1 8U5      -0.073400
     25 CBO        144.8490   158.7870    69.3330 c3         1 8U5      -0.076400
     26 CBN        145.8420   159.5940    70.1580 c3         1 8U5      -0.076400
     27 CBM        145.2360   160.8720    70.7250 c3         1 8U5      -0.075400
     28 CBL        146.2070   161.7150    71.5470 c3         1 8U5      -0.063400
     29 CBK        147.3260   162.3210    70.7050 c3         1 8U5      -0.159400
     30 CAX        148.2890   163.1600    71.5150 c          1 8U5       0.663100
     31 OAY        148.7140   162.7980    72.6030 o          1 8U5      -0.593100
     32 NAZ        148.6680   164.3160    70.9360 ns         1 8U5      -0.578900
     33 CBA        149.6410   165.2100    71.5060 c3         1 8U5       0.155300
     34 CBB        149.0860   166.2360    72.4690 ca         1 8U5      -0.097300
     35 CBC        149.9680   167.1910    72.9840 ca         1 8U5      -0.187000
     36 CBG        147.7630   166.2680    72.8630 ca         1 8U5      -0.106000
     37 CBF        147.3240   167.2330    73.7690 ca         1 8U5      -0.194000
     38 CBE        148.1930   168.1740    74.2870 ca         1 8U5       0.110100
     39 OBH        147.8310   169.1270    75.1720 oh         1 8U5      -0.476100
     40 CBD        149.5420   168.1560    73.8820 ca         1 8U5       0.115100
     41 OBI        150.3260   169.1120    74.4180 os         1 8U5      -0.296900
     42 CBJ        151.6790   169.1630    74.0200 c3         1 8U5       0.122700
     43 H1         138.1270   155.9210    67.2860 hc         1 8U5       0.045700
     44 H2         138.4310   154.2070    67.5310 hc         1 8U5       0.045700
     45 H3         137.5110   155.2680    69.5970 hc         1 8U5       0.051700
     46 H4         139.5020   154.5370    71.1040 hc         1 8U5       0.064200
     47 H5         138.7390   153.3750    70.0550 hc         1 8U5       0.064200
     48 H6         138.2800   157.5130    69.3040 hc         1 8U5       0.039700
     49 H7         138.8820   156.9130    70.8380 hc         1 8U5       0.039700
     50 H8         141.1150   156.5810    69.8910 hc         1 8U5       0.057700
     51 H9         140.5750   158.8570    70.6980 hc         1 8U5       0.032367
     52 H10        141.6980   158.9270    69.3400 hc         1 8U5       0.032367
     53 H11        139.9930   159.3040    69.0950 hc         1 8U5       0.032367
     54 H12        141.6200   157.1040    67.5440 hc         1 8U5       0.036200
     55 H13        139.9540   157.5590    67.2510 hc         1 8U5       0.036200
     56 H14        140.3100   155.3060    66.4040 hc         1 8U5       0.042700
     57 H15        142.8110   151.3210    71.3580 ha         1 8U5       0.163000
     58 H16        145.6860   150.8570    68.2030 ha         1 8U5       0.146000
     59 H17        144.5750   152.5630    66.9180 ha         1 8U5       0.134000
     60 H18        142.1610   155.2640    66.1370 hn         1 8U5       0.415800
     61 H19        144.6660   154.0110    65.7300 h1         1 8U5       0.046700
     62 H20        144.0920   155.5980    65.3320 h1         1 8U5       0.046700
     63 H21        145.2720   154.7810    68.0250 hc         1 8U5       0.053700
     64 H22        146.0120   155.7410    66.7680 hc         1 8U5       0.053700
     65 H23        144.1080   157.4320    67.0560 hc         1 8U5       0.040700
     66 H24        143.5780   156.5100    68.4460 hc         1 8U5       0.040700
     67 H25        145.8020   156.8670    69.5350 hc         1 8U5       0.040200
     68 H26        146.3320   157.7870    68.1420 hc         1 8U5       0.040200
     69 H27        144.4580   159.4180    68.5270 hc         1 8U5       0.037200
     70 H28        143.9860   158.5200    69.9530 hc         1 8U5       0.037200
     71 H29        146.2220   158.9780    70.9800 hc         1 8U5       0.039700
     72 H30        146.7080   159.8320    69.5320 hc         1 8U5       0.039700
     73 H31        144.8340   161.4780    69.9060 hc         1 8U5       0.038200
     74 H32        144.3800   160.6080    71.3530 hc         1 8U5       0.038200
     75 H33        146.6340   161.1050    72.3460 hc         1 8U5       0.054700
     76 H34        145.6530   162.5220    72.0350 hc         1 8U5       0.054700
     77 H35        146.8980   162.9030    69.8850 hc         1 8U5       0.055200
     78 H36        147.9190   161.5290    70.2370 hc         1 8U5       0.055200
     79 H37        148.2560   164.5740    70.0550 hn         1 8U5       0.312500
     80 H38        150.4120   164.6220    72.0080 h1         1 8U5       0.059200
     81 H39        150.1390   165.7230    70.6810 h1         1 8U5       0.059200
     82 H40        151.0030   167.1640    72.6670 ha         1 8U5       0.134000
     83 H41        147.0510   165.5540    72.4730 ha         1 8U5       0.134000
     84 H42        146.2830   167.2470    74.0730 ha         1 8U5       0.131000
     85 H43        146.8950   169.0400    75.3850 ho         1 8U5       0.419000
     86 H44        152.1260   170.0010    74.5500 h1         1 8U5       0.038700
     87 H45        152.2210   168.2510    74.2850 h1         1 8U5       0.038700
     88 H46        151.7840   169.3320    72.9440 h1         1 8U5       0.038700
@<TRIPOS>BOND
     1     1     2 1   
     2     1     8 1   
     3     1    43 1   
     4     1    44 1   
     5     2     3 1   
     6     2     4 1   
     7     2    45 1   
     8     3    10 1   
     9     3    46 1   
    10     3    47 1   
    11     4     5 1   
    12     4    48 1   
    13     4    49 1   
    14     5     6 1   
    15     5     7 1   
    16     5    50 1   
    17     6    51 1   
    18     6    52 1   
    19     6    53 1   
    20     7     8 1   
    21     7    54 1   
    22     7    55 1   
    23     8     9 1   
    24     8    56 1   
    25     9    10 ar  
    26     9    19 ar  
    27    10    11 ar  
    28    11    12 ar  
    29    12    13 ar  
    30    12    18 ar  
    31    13    14 ar  
    32    13    57 1   
    33    14    15 1   
    34    14    16 ar  
    35    16    17 ar  
    36    16    58 1   
    37    17    18 ar  
    38    17    59 1   
    39    18    19 ar  
    40    19    20 1   
    41    20    21 1   
    42    20    60 1   
    43    21    22 1   
    44    21    61 1   
    45    21    62 1   
    46    22    23 1   
    47    22    63 1   
    48    22    64 1   
    49    23    24 1   
    50    23    65 1   
    51    23    66 1   
    52    24    25 1   
    53    24    67 1   
    54    24    68 1   
    55    25    26 1   
    56    25    69 1   
    57    25    70 1   
    58    26    27 1   
    59    26    71 1   
    60    26    72 1   
    61    27    28 1   
    62    27    73 1   
    63    27    74 1   
    64    28    29 1   
    65    28    75 1   
    66    28    76 1   
    67    29    30 1   
    68    29    77 1   
    69    29    78 1   
    70    30    31 2   
    71    30    32 1   
    72    32    33 1   
    73    32    79 1   
    74    33    34 1   
    75    33    80 1   
    76    33    81 1   
    77    34    35 ar  
    78    34    36 ar  
    79    35    40 ar  
    80    35    82 1   
    81    36    37 ar  
    82    36    83 1   
    83    37    38 ar  
    84    37    84 1   
    85    38    39 1   
    86    38    40 ar  
    87    39    85 1   
    88    40    41 1   
    89    41    42 1   
    90    42    86 1   
    91    42    87 1   
    92    42    88 1   
@<TRIPOS>SUBSTRUCTURE
     1 8U5         1 TEMP              0 ****  ****    0 ROOT
