@<TRIPOS>MOLECULE
8U6
   52    55     1     0     0
SMALL
bcc


@<TRIPOS>ATOM
      1 C4          -7.4650     0.9040    -0.8320 ca         1 8U6      -0.115000
      2 C14          0.5890    -2.1530    -0.3950 ca         1 8U6       0.048600
      3 C5          -6.1780     0.6820    -0.2910 ca         1 8U6      -0.037000
      4 C6          -5.1890     1.6910    -0.4280 ca         1 8U6      -0.032000
      5 C11         -1.4700    -0.6290     0.7180 ca         1 8U6       0.181100
      6 C7          -5.8460    -0.5150     0.3870 ca         1 8U6      -0.101000
      7 C8          -4.5970    -0.7080     0.9070 ca         1 8U6      -0.137000
      8 C9          -3.6300     0.3060     0.7610 ca         1 8U6       0.085100
      9 C10         -3.9000     1.4740     0.1120 ca         1 8U6      -0.111000
     10 C12         -1.6240    -1.1920    -0.5420 ca         1 8U6      -0.204000
     11 C13         -0.6040    -1.9550    -1.0830 ca         1 8U6      -0.037000
     12 N1           0.0240     0.1960     3.7610 n1         1 8U6      -0.359800
     13 C3          -7.7560     2.0730    -1.4800 ca         1 8U6      -0.119000
     14 N3           4.8740     2.4050     0.9390 ns         1 8U6      -0.476100
     15 C1          -5.5180     2.8890    -1.1040 ca         1 8U6      -0.114000
     16 C2          -6.7720     3.0750    -1.6170 ca         1 8U6      -0.119000
     17 O1          -2.3900     0.1290     1.3390 os         1 8U6      -0.238200
     18 C15          0.7530    -1.5850     0.8580 ca         1 8U6      -0.080000
     19 C16         -0.2780    -0.8390     1.4210 ca         1 8U6      -0.048000
     20 C17         -0.1190    -0.2640     2.7140 cg         1 8U6       0.246800
     21 S1           2.6000    -2.1420    -2.1030 sy         1 8U6       1.288200
     22 C18          3.3270    -0.7900    -1.2420 ca         1 8U6      -0.353500
     23 C19          4.4800    -0.9910    -0.4960 ca         1 8U6      -0.000500
     24 C20          5.0240     0.0450     0.2420 ca         1 8U6      -0.197000
     25 C21          4.4080     1.3010     0.2390 ca         1 8U6       0.137600
     26 C22          3.2450     1.4860    -0.5190 ca         1 8U6      -0.197000
     27 C23          2.7040     0.4520    -1.2530 ca         1 8U6      -0.000500
     28 O2           3.6280    -3.1060    -2.4500 o          1 8U6      -0.601300
     29 O3           1.7140    -1.6080    -3.1200 o          1 8U6      -0.601300
     30 C24          5.9370     2.5060     1.7900 c          1 8U6       0.678100
     31 C25          6.1590     3.8940     2.3320 c3         1 8U6      -0.182100
     32 O4           6.6630     1.5730     2.0740 o          1 8U6      -0.565100
     33 H1          -8.2190     0.1340    -0.7260 ha         1 8U6       0.135000
     34 H2          -6.6000    -1.2850     0.4970 ha         1 8U6       0.139000
     35 H3          -4.3480    -1.6200     1.4340 ha         1 8U6       0.150000
     36 H4          -3.1380     2.2380     0.0150 ha         1 8U6       0.149000
     37 H5          -2.5350    -1.0500    -1.1070 ha         1 8U6       0.159000
     38 H6          -0.7460    -2.4080    -2.0540 ha         1 8U6       0.166000
     39 H7           2.1740    -3.4640    -0.3310 hn         1 8U6       0.430800
     40 H8          -8.7440     2.2340    -1.8910 ha         1 8U6       0.135000
     41 H9           4.3470     3.2520     0.7920 hn         1 8U6       0.321500
     42 H10         -4.7620     3.6580    -1.2100 ha         1 8U6       0.135000
     43 H11         -7.0160     3.9940    -2.1340 ha         1 8U6       0.135000
     44 H12          1.6750    -1.7200     1.4090 ha         1 8U6       0.149000
     45 H13          4.9740    -1.9530    -0.4820 ha         1 8U6       0.154500
     46 H14          5.9230    -0.1320     0.8080 ha         1 8U6       0.153500
     47 H15          2.7610     2.4540    -0.5350 ha         1 8U6       0.153500
     48 H16          1.8070     0.6250    -1.8310 ha         1 8U6       0.154500
     49 H17          5.2790     4.5310     2.2690 hc         1 8U6       0.067700
     50 H18          6.4800     3.8350     3.3690 hc         1 8U6       0.067700
     51 H19          6.9600     4.3700     1.7640 hc         1 8U6       0.067700
     52 N2           1.6230    -2.9190    -0.9880 nu         1 8U6      -0.661500
@<TRIPOS>BOND
     1     1     3 ar  
     2     1    13 ar  
     3     1    33 1   
     4     2    11 ar  
     5     2    18 ar  
     6     2    52 1   
     7     3     4 ar  
     8     3     6 ar  
     9     4     9 ar  
    10     4    15 ar  
    11     5    10 ar  
    12     5    17 1   
    13     5    19 ar  
    14     6     7 ar  
    15     6    34 1   
    16     7     8 ar  
    17     7    35 1   
    18     8     9 ar  
    19     8    17 1   
    20     9    36 1   
    21    10    11 ar  
    22    10    37 1   
    23    11    38 1   
    24    12    20 3   
    25    13    16 ar  
    26    13    40 1   
    27    14    25 1   
    28    14    30 1   
    29    14    41 1   
    30    15    16 ar  
    31    15    42 1   
    32    16    43 1   
    33    18    19 ar  
    34    18    44 1   
    35    19    20 1   
    36    21    22 1   
    37    21    28 2   
    38    21    29 2   
    39    21    52 1   
    40    22    23 ar  
    41    22    27 ar  
    42    23    24 ar  
    43    23    45 1   
    44    24    25 ar  
    45    24    46 1   
    46    25    26 ar  
    47    26    27 ar  
    48    26    47 1   
    49    27    48 1   
    50    30    31 1   
    51    30    32 2   
    52    31    49 1   
    53    31    50 1   
    54    31    51 1   
    55    39    52 1   
@<TRIPOS>SUBSTRUCTURE
     1 8U6         1 TEMP              0 ****  ****    0 ROOT
