@<TRIPOS>MOLECULE
8U6
   52    55     1     0     0
SMALL
No Charge or Current Charge


@<TRIPOS>ATOM
      1 C4          -6.9270     1.4660    -1.6670 ca         1 8U6      -0.097000
      2 C14          0.6440    -2.3890     0.1940 ca         1 8U6       0.187000
      3 C5          -5.8570     1.0390    -0.8580 ca         1 8U6      -0.037000
      4 C6          -5.3900     1.8690     0.1860 ca         1 8U6      -0.032000
      5 C11         -1.5970    -0.9260     1.1190 ca         1 8U6       0.181100
      6 C7          -5.2540    -0.2140    -1.0810 ca         1 8U6      -0.083000
      7 C8          -4.1860    -0.6370    -0.2700 ca         1 8U6      -0.119000
      8 C9          -3.7120     0.1970     0.7620 ca         1 8U6       0.085100
      9 C10         -4.3200     1.4410     0.9960 ca         1 8U6      -0.093000
     10 C12         -1.0010    -0.6050    -0.1140 ca         1 8U6      -0.186000
     11 C13          0.1080    -1.3350    -0.5770 ca         1 8U6      -0.019000
     12 N1          -2.1180    -2.5950     4.1990 n1         1 8U6      -0.449000
     13 C3          -7.5280     2.7160    -1.4380 ca         1 8U6      -0.101000
     14 N3           4.9670     2.6980     0.0530 ns         1 8U6      -0.150000
     15 C1          -5.9960     3.1190     0.4120 ca         1 8U6      -0.096000
     16 C2          -7.0630     3.5420    -0.4000 ca         1 8U6      -0.101000
     17 O1          -2.6760    -0.2000     1.5780 os         1 8U6      -0.238200
     18 C15          0.0460    -2.7000     1.4300 ca         1 8U6      -0.062000
     19 C16         -1.0660    -1.9720     1.9000 ca         1 8U6      -0.048000
     20 C17         -1.6520    -2.3100     3.1670 cg         1 8U6       0.336000
     21 S1           2.9270    -2.8060    -1.3770 sy         1 8U6       1.146600
     22 C18          3.5480    -1.1790    -0.9480 ca         1 8U6      -0.353500
     23 C19          4.3040    -1.0100     0.2270 ca         1 8U6       0.017500
     24 C20          4.7840     0.2620     0.5790 ca         1 8U6      -0.179000
     25 C21          4.5170     1.3820    -0.2380 ca         1 8U6       0.045000
     26 C22          3.7620     1.2000    -1.4120 ca         1 8U6      -0.179000
     27 C23          3.2780    -0.0690    -1.7710 ca         1 8U6       0.017500
     28 O2           3.9460    -3.8140    -1.0800 o          1 8U6      -0.530500
     29 O3           2.2050    -2.7690    -2.6520 o          1 8U6      -0.530500
     30 C24          5.7140     3.2220     1.1000 c          1 8U6       0.611100
     31 C25          5.9610     4.7240     0.9940 c3         1 8U6      -0.182100
     32 O4           6.1520     2.5700     2.0400 o          1 8U6      -0.565100
     33 H1          -7.2930     0.8330    -2.4720 ha         1 8U6       0.117000
     34 H2          -5.6130    -0.8610    -1.8780 ha         1 8U6       0.121000
     35 H3          -3.7350    -1.6110    -0.4440 ha         1 8U6       0.132000
     36 H4          -3.9560     2.0720     1.8020 ha         1 8U6       0.131000
     37 H5          -1.3940     0.2110    -0.7150 ha         1 8U6       0.141000
     38 H6           0.5410    -1.0760    -1.5370 ha         1 8U6       0.148000
     39 H7           2.1510    -3.8130     0.4160 hn         1 8U6       0.486000
     40 H8          -8.3540     3.0450    -2.0650 ha         1 8U6       0.117000
     41 H9           4.6900     3.3840    -0.6360 hn         1 8U6       0.155000
     42 H10         -5.6430     3.7640     1.2140 ha         1 8U6       0.117000
     43 H11         -7.5300     4.5080    -0.2240 ha         1 8U6       0.117000
     44 H12          0.4510    -3.5110     2.0310 ha         1 8U6       0.131000
     45 H13          4.5180    -1.8610     0.8720 ha         1 8U6       0.136500
     46 H14          5.3610     0.3530     1.4920 ha         1 8U6       0.135500
     47 H15          3.5450     2.0490    -2.0560 ha         1 8U6       0.135500
     48 H16          2.6980    -0.1800    -2.6860 ha         1 8U6       0.136500
     49 H17          4.9980     5.2380     0.9040 hc         1 8U6       0.067700
     50 H18          6.5520     5.1140     1.8300 hc         1 8U6       0.067700
     51 H19          6.4320     4.9410     0.0290 hc         1 8U6       0.067700
     52 N2           1.7500    -3.1390    -0.2230 nu         1 8U6      -0.855100
@<TRIPOS>BOND
     1     1     3 ar  
     2     1    13 ar  
     3     1    33 1   
     4     2    11 ar  
     5     2    18 ar  
     6     2    52 1   
     7     3     4 ar  
     8     3     6 ar  
     9     4     9 ar  
    10     4    15 ar  
    11     5    10 ar  
    12     5    17 1   
    13     5    19 ar  
    14     6     7 ar  
    15     6    34 1   
    16     7     8 ar  
    17     7    35 1   
    18     8     9 ar  
    19     8    17 1   
    20     9    36 1   
    21    10    11 ar  
    22    10    37 1   
    23    11    38 1   
    24    12    20 3   
    25    13    16 ar  
    26    13    40 1   
    27    14    25 1   
    28    14    30 1   
    29    14    41 1   
    30    15    16 ar  
    31    15    42 1   
    32    16    43 1   
    33    18    19 ar  
    34    18    44 1   
    35    19    20 1   
    36    21    22 1   
    37    21    28 2   
    38    21    29 2   
    39    21    52 1   
    40    22    23 ar  
    41    22    27 ar  
    42    23    24 ar  
    43    23    45 1   
    44    24    25 ar  
    45    24    46 1   
    46    25    26 ar  
    47    26    27 ar  
    48    26    47 1   
    49    27    48 1   
    50    30    31 1   
    51    30    32 2   
    52    31    49 1   
    53    31    50 1   
    54    31    51 1   
    55    39    52 1   
@<TRIPOS>SUBSTRUCTURE
     1 8U6         1 TEMP              0 ****  ****    0 ROOT
