@<TRIPOS>MOLECULE
8U7
   39    40     1     0     0
SMALL
No Charge or Current Charge


@<TRIPOS>ATOM
      1 N1          -5.3100     0.7800    -0.7000 ns         1 8U7      -0.531900
      2 N3           0.9770    -0.8640     0.0680 n3         1 8U7      -0.727600
      3 C4          -0.6940     1.0060     0.1210 c6         1 8U7      -0.093400
      4 C5           0.6250     0.4410     0.6960 c6         1 8U7       0.171300
      5 C6          -0.1140    -1.8620     0.2370 c6         1 8U7       0.171300
      6 C7          -1.4490    -1.3460    -0.3480 c6         1 8U7      -0.093400
      7 C8           2.2870    -1.3900     0.5220 c3         1 8U7       0.217100
      8 C10          4.1770     0.1770     1.2140 ca         1 8U7      -0.099000
      9 C13          4.9220     0.5730    -1.4670 ca         1 8U7      -0.114500
     10 C1          -6.7480     0.5610    -0.5430 c3         1 8U7       0.113300
     11 C2          -4.3540     0.1420     0.0390 c          1 8U7       0.648100
     12 N2          -3.0850     0.5220    -0.3010 ns         1 8U7      -0.514900
     13 C3          -1.8520    -0.0010     0.3010 c6         1 8U7       0.118700
     14 C9           3.4620    -0.4730     0.1880 ca         1 8U7      -0.087300
     15 C11          5.2580     1.0200     0.9000 ca         1 8U7      -0.114500
     16 C12          5.6310     1.2180    -0.4400 ca         1 8U7      -0.110000
     17 C14          3.8410    -0.2700    -1.1540 ca         1 8U7      -0.099000
     18 O1          -4.6070    -0.6740     0.9080 o          1 8U7      -0.645100
     19 H1          -4.9950     1.4420    -1.3980 hn         1 8U7       0.307500
     20 H3          -0.9380     1.9520     0.6240 hc         1 8U7       0.051700
     21 H4          -0.5570     1.2400    -0.9440 hc         1 8U7       0.051700
     22 H5           0.5230     0.3240     1.7850 h1         1 8U7       0.036200
     23 H6           1.4200     1.1810     0.5240 h1         1 8U7       0.036200
     24 H7           0.1490    -2.8030    -0.2670 h1         1 8U7       0.036200
     25 H8          -0.2560    -2.0950     1.3040 h1         1 8U7       0.036200
     26 H9          -1.3500    -1.2260    -1.4350 hc         1 8U7       0.051700
     27 H10         -2.2350    -2.0950    -0.1830 hc         1 8U7       0.051700
     28 H11          2.2630    -1.5670     1.6070 h1         1 8U7       0.038200
     29 H12          2.4780    -2.3630     0.0490 h1         1 8U7       0.038200
     30 H14          5.2080     0.7260    -2.5050 ha         1 8U7       0.111000
     31 H15         -6.9860    -0.4930    -0.7380 h1         1 8U7       0.037033
     32 H16         -7.0520     0.8210     0.4800 h1         1 8U7       0.037033
     33 H17         -7.2950     1.1930    -1.2540 h1         1 8U7       0.037033
     34 H18         -2.9980     1.2090    -1.0380 hn         1 8U7       0.296500
     35 H19         -2.0240    -0.1570     1.3770 h1         1 8U7       0.081700
     36 H20          5.8050     1.5200     1.6960 ha         1 8U7       0.111000
     37 H21          6.4670     1.8700    -0.6820 ha         1 8U7       0.111000
     38 H22          3.2920    -0.7640    -1.9530 ha         1 8U7       0.117500
     39 H13          3.8940     0.0320     2.2540 ha         1 8U7       0.117500
@<TRIPOS>BOND
     1     1    10 1   
     2     1    11 1   
     3     1    19 1   
     4     2     4 1   
     5     2     5 1   
     6     2     7 1   
     7     3     4 1   
     8     3    13 1   
     9     3    20 1   
    10     3    21 1   
    11     4    22 1   
    12     4    23 1   
    13     5     6 1   
    14     5    24 1   
    15     5    25 1   
    16     6    13 1   
    17     6    26 1   
    18     6    27 1   
    19     7    14 1   
    20     7    28 1   
    21     7    29 1   
    22     8    14 ar  
    23     8    15 ar  
    24     8    39 1   
    25     9    16 ar  
    26     9    17 ar  
    27     9    30 1   
    28    10    31 1   
    29    10    32 1   
    30    10    33 1   
    31    11    12 1   
    32    11    18 2   
    33    12    13 1   
    34    12    34 1   
    35    13    35 1   
    36    14    17 ar  
    37    15    16 ar  
    38    15    36 1   
    39    16    37 1   
    40    17    38 1   
@<TRIPOS>SUBSTRUCTURE
     1 8U7         1 TEMP              0 ****  ****    0 ROOT
