@<TRIPOS>MOLECULE
8U7
   39    40     1     0     0
SMALL
abcg2


@<TRIPOS>ATOM
      1 N1          -5.2530     0.7150    -0.8430 ns         1 8U7      -0.531900
      2 N3           0.9470    -0.7710     0.1960 n3         1 8U7      -0.727600
      3 C4          -0.6800     1.0680     0.1810 c6         1 8U7      -0.093400
      4 C5           0.5710     0.4860     0.8180 c6         1 8U7       0.171300
      5 C6          -0.1140    -1.7540     0.3180 c6         1 8U7       0.171300
      6 C7          -1.3920    -1.2600    -0.3420 c6         1 8U7      -0.093400
      7 C8           2.2080    -1.2680     0.6990 c3         1 8U7       0.217100
      8 C10          4.3980    -0.1080     1.1600 ca         1 8U7      -0.099000
      9 C13          4.5790     0.7690    -1.4600 ca         1 8U7      -0.114500
     10 C1          -6.6360     0.3720    -0.6270 c3         1 8U7       0.113300
     11 C2          -4.2690     0.2400    -0.0420 c          1 8U7       0.648100
     12 N2          -3.0080     0.6230    -0.3850 ns         1 8U7      -0.514900
     13 C3          -1.8330     0.0740     0.2550 c6         1 8U7       0.118700
     14 C9           3.3800    -0.4240     0.2660 ca         1 8U7      -0.087300
     15 C11          5.5010     0.6320     0.7510 ca         1 8U7      -0.114500
     16 C12          5.5950     1.0730    -0.5610 ca         1 8U7      -0.110000
     17 C14          3.4810     0.0270    -1.0490 ca         1 8U7      -0.099000
     18 O1          -4.5110    -0.4540     0.9430 o          1 8U7      -0.645100
     19 H1          -5.0190     1.2360    -1.6710 hn         1 8U7       0.307500
     20 H3          -0.9510     1.9970     0.6880 hc         1 8U7       0.051700
     21 H4          -0.4690     1.3150    -0.8640 hc         1 8U7       0.051700
     22 H5           0.4010     0.3570     1.9020 h1         1 8U7       0.036200
     23 H6           1.3940     1.1950     0.7140 h1         1 8U7       0.036200
     24 H7           0.2100    -2.6820    -0.1610 h1         1 8U7       0.036200
     25 H8          -0.3210    -1.9990     1.3750 h1         1 8U7       0.036200
     26 H9          -1.2200    -1.1370    -1.4160 hc         1 8U7       0.051700
     27 H10         -2.1800    -2.0070    -0.2210 hc         1 8U7       0.051700
     28 H11          2.2140    -1.3620     1.7980 h1         1 8U7       0.038200
     29 H12          2.3500    -2.2820     0.3110 h1         1 8U7       0.038200
     30 H14          4.6420     1.1130    -2.4850 ha         1 8U7       0.111000
     31 H15         -6.8240    -0.6980    -0.7360 h1         1 8U7       0.037033
     32 H16         -6.9820     0.6790     0.3600 h1         1 8U7       0.037033
     33 H17         -7.2350     0.8950    -1.3680 h1         1 8U7       0.037033
     34 H18         -2.8670     1.0460    -1.2890 hn         1 8U7       0.296500
     35 H19         -2.0770    -0.0840     1.3090 h1         1 8U7       0.081700
     36 H20          6.2820     0.8710     1.4630 ha         1 8U7       0.111000
     37 H21          6.4520     1.6530    -0.8810 ha         1 8U7       0.111000
     38 H22          2.6860    -0.1980    -1.7490 ha         1 8U7       0.117500
     39 H13          4.3270    -0.4410     2.1890 ha         1 8U7       0.117500
@<TRIPOS>BOND
     1     1    10 1   
     2     1    11 1   
     3     1    19 1   
     4     2     4 1   
     5     2     5 1   
     6     2     7 1   
     7     3     4 1   
     8     3    13 1   
     9     3    20 1   
    10     3    21 1   
    11     4    22 1   
    12     4    23 1   
    13     5     6 1   
    14     5    24 1   
    15     5    25 1   
    16     6    13 1   
    17     6    26 1   
    18     6    27 1   
    19     7    14 1   
    20     7    28 1   
    21     7    29 1   
    22     8    14 ar  
    23     8    15 ar  
    24     8    39 1   
    25     9    16 ar  
    26     9    17 ar  
    27     9    30 1   
    28    10    31 1   
    29    10    32 1   
    30    10    33 1   
    31    11    12 1   
    32    11    18 2   
    33    12    13 1   
    34    12    34 1   
    35    13    35 1   
    36    14    17 ar  
    37    15    16 ar  
    38    15    36 1   
    39    16    37 1   
    40    17    38 1   
@<TRIPOS>SUBSTRUCTURE
     1 8U7         1 TEMP              0 ****  ****    0 ROOT
