@<TRIPOS>MOLECULE
8U8
   40    42     1     0     0
SMALL
abcg2


@<TRIPOS>ATOM
      1 C15         -4.8210     2.1700     1.5790 c3         1 8U8      -0.065900
      2 C13         -4.4850     0.9740     0.7540 cc         1 8U8       0.070600
      3 C14         -5.4300     0.3190     0.0440 cd         1 8U8      -0.370200
      4 C16         -5.1250    -0.8380    -0.7620 c          1 8U8       0.681300
      5 O9          -5.9120    -1.4740    -1.4210 o          1 8U8      -0.516000
      6 O8          -3.8290    -1.2490    -0.7820 os         1 8U8      -0.338200
      7 C11         -2.8490    -0.6250    -0.0890 ca         1 8U8       0.203100
      8 C10         -1.5750    -1.1500    -0.1990 ca         1 8U8      -0.195000
      9 C12         -3.1250     0.4940     0.7000 ca         1 8U8      -0.210800
     10 C7          -2.0530     1.0760     1.3820 ca         1 8U8      -0.020000
     11 C8          -0.7700     0.5780     1.2880 ca         1 8U8      -0.196000
     12 C9          -0.5280    -0.5520     0.4940 ca         1 8U8       0.232100
     13 O2           0.6680    -1.1410     0.3400 os         1 8U8      -0.374100
     14 C5           1.8000    -0.6730     1.0520 c6         1 8U8       0.360300
     15 O1           2.1910     0.5860     0.6390 os         1 8U8      -0.424000
     16 C1           2.6690     0.6700    -0.7050 c6         1 8U8      -0.017700
     17 C6           2.9630     2.1700    -0.9380 c          1 8U8       0.731000
     18 O7           4.0430     2.6000    -0.4530 o          1 8U8      -0.699500
     19 O6           2.1230     2.8300    -1.5570 o          1 8U8      -0.699500
     20 C2           3.8940    -0.2230    -0.8990 c6         1 8U8       0.183300
     21 O5           4.9970     0.2100    -0.1540 oh         1 8U8      -0.772000
     22 C3           3.5590    -1.6610    -0.5010 c6         1 8U8       0.162300
     23 O4           2.7120    -2.1660    -1.5060 oh         1 8U8      -0.647000
     24 C4           2.8930    -1.7360     0.8820 c6         1 8U8       0.124300
     25 O3           3.8820    -1.5590     1.8630 oh         1 8U8      -0.669000
     26 H1          -5.8810     2.4060     1.5160 hc         1 8U8       0.051033
     27 H2          -4.5690     2.0050     2.6270 hc         1 8U8       0.051033
     28 H3          -4.2550     3.0420     1.2460 hc         1 8U8       0.051033
     29 H4          -6.4620     0.6410     0.0530 ha         1 8U8       0.200000
     30 H5          -1.3940    -2.0220    -0.8150 ha         1 8U8       0.146000
     31 H6          -2.2220     1.9490     1.9980 ha         1 8U8       0.112000
     32 H7           0.0210     1.0820     1.8210 ha         1 8U8       0.150000
     33 H8           1.5470    -0.5780     2.1160 h2         1 8U8       0.050700
     34 H9           1.8880     0.3540    -1.4040 h1         1 8U8       0.057700
     35 H11          4.1160    -0.2250    -1.9800 h1         1 8U8       0.039700
     36 H12          4.8970     1.1910    -0.1310 ho         1 8U8       0.579000
     37 H13          4.4940    -2.2380    -0.4450 h1         1 8U8       0.048700
     38 H14          2.3980    -3.0370    -1.2420 ho         1 8U8       0.429000
     39 H15          2.4220    -2.7240     0.9850 h1         1 8U8       0.016700
     40 H16          3.5390    -1.8910     2.6990 ho         1 8U8       0.484000
@<TRIPOS>BOND
     1     1     2 1   
     2     1    26 1   
     3     1    27 1   
     4     1    28 1   
     5     2     3 2   
     6     2     9 1   
     7     3     4 1   
     8     3    29 1   
     9     4     5 2   
    10     4     6 1   
    11     6     7 1   
    12     7     8 ar  
    13     7     9 ar  
    14     8    12 ar  
    15     8    30 1   
    16     9    10 ar  
    17    10    11 ar  
    18    10    31 1   
    19    11    12 ar  
    20    11    32 1   
    21    12    13 1   
    22    13    14 1   
    23    14    15 1   
    24    14    24 1   
    25    14    33 1   
    26    15    16 1   
    27    16    17 1   
    28    16    20 1   
    29    16    34 1   
    30    17    18 1   
    31    17    19 1   
    32    20    21 1   
    33    20    22 1   
    34    20    35 1   
    35    21    36 1   
    36    22    23 1   
    37    22    24 1   
    38    22    37 1   
    39    23    38 1   
    40    24    25 1   
    41    24    39 1   
    42    25    40 1   
@<TRIPOS>SUBSTRUCTURE
     1 8U8         1 TEMP              0 ****  ****    0 ROOT
