@<TRIPOS>MOLECULE
8U8
   40    42     1     0     0
SMALL
No Charge or Current Charge


@<TRIPOS>ATOM
      1 C15         -4.8590     2.2160     1.7100 c3         1 8U8      -0.065900
      2 C13         -4.4980     1.0750     0.7940 cc         1 8U8       0.070600
      3 C14         -5.4220     0.4850    -0.0410 cd         1 8U8      -0.370200
      4 C16         -5.1330    -0.6280    -0.9560 c          1 8U8       0.681300
      5 O9          -5.9930    -1.1160    -1.6760 o          1 8U8      -0.516000
      6 O8          -3.8520    -1.0870    -0.9580 os         1 8U8      -0.338200
      7 C11         -2.8700    -0.5630    -0.1660 ca         1 8U8       0.203100
      8 C10         -1.5850    -1.1130    -0.2490 ca         1 8U8      -0.195000
      9 C12         -3.1480     0.5030     0.7110 ca         1 8U8      -0.210800
     10 C7          -2.0970     1.0050     1.5100 ca         1 8U8      -0.020000
     11 C8          -0.8070     0.4530     1.4280 ca         1 8U8      -0.196000
     12 C9          -0.5440    -0.6100     0.5410 ca         1 8U8       0.232100
     13 O2           0.6940    -1.2060     0.4140 os         1 8U8      -0.374100
     14 C5           1.8550    -0.6930     1.1000 c6         1 8U8       0.360300
     15 O1           2.1830     0.6310     0.6030 os         1 8U8      -0.424000
     16 C1           2.6200     0.6630    -0.7990 c6         1 8U8      -0.017700
     17 C6           2.8210     2.1010    -1.3810 c          1 8U8       0.731000
     18 O7           2.8910     3.0250    -0.5770 o          1 8U8      -0.699500
     19 O6           2.2970     2.2960    -2.4710 o          1 8U8      -0.699500
     20 C2           3.9130    -0.1850    -0.9830 c6         1 8U8       0.183300
     21 O5           4.9810     0.3560    -0.1860 oh         1 8U8      -0.772000
     22 C3           3.6270    -1.6590    -0.5250 c6         1 8U8       0.162300
     23 O4           2.7090    -2.3110    -1.4270 oh         1 8U8      -0.647000
     24 C4           3.1000    -1.6490     0.9580 c6         1 8U8       0.124300
     25 O3           4.1750    -1.2100     1.8320 oh         1 8U8      -0.669000
     26 H1          -5.9170     2.4890     1.6130 hc         1 8U8       0.051033
     27 H2          -4.6810     1.9470     2.7580 hc         1 8U8       0.051033
     28 H3          -4.2640     3.1070     1.4780 hc         1 8U8       0.051033
     29 H4          -6.4510     0.8190    -0.0710 ha         1 8U8       0.200000
     30 H5          -1.3920    -1.9350    -0.9310 ha         1 8U8       0.146000
     31 H6          -2.2660     1.8270     2.2020 ha         1 8U8       0.112000
     32 H7          -0.0270     0.8680     2.0590 ha         1 8U8       0.150000
     33 H8           1.6160    -0.6200     2.1720 h2         1 8U8       0.050700
     34 H9           1.8260     0.2130    -1.4110 h1         1 8U8       0.057700
     35 H11          4.1960    -0.1860    -2.0460 h1         1 8U8       0.039700
     36 H12          4.8120    -0.0490     0.7150 ho         1 8U8       0.579000
     37 H13          4.5800    -2.2100    -0.5410 h1         1 8U8       0.048700
     38 H14          2.5480    -3.2120    -1.0720 ho         1 8U8       0.429000
     39 H15          2.8000    -2.6690     1.2350 h1         1 8U8       0.016700
     40 H16          3.9940    -1.5830     2.7280 ho         1 8U8       0.484000
@<TRIPOS>BOND
     1     1     2 1   
     2     1    26 1   
     3     1    27 1   
     4     1    28 1   
     5     2     3 2   
     6     2     9 1   
     7     3     4 1   
     8     3    29 1   
     9     4     5 2   
    10     4     6 1   
    11     6     7 1   
    12     7     8 ar  
    13     7     9 ar  
    14     8    12 ar  
    15     8    30 1   
    16     9    10 ar  
    17    10    11 ar  
    18    10    31 1   
    19    11    12 ar  
    20    11    32 1   
    21    12    13 1   
    22    13    14 1   
    23    14    15 1   
    24    14    24 1   
    25    14    33 1   
    26    15    16 1   
    27    16    17 1   
    28    16    20 1   
    29    16    34 1   
    30    17    18 1   
    31    17    19 1   
    32    20    21 1   
    33    20    22 1   
    34    20    35 1   
    35    21    36 1   
    36    22    23 1   
    37    22    24 1   
    38    22    37 1   
    39    23    38 1   
    40    24    25 1   
    41    24    39 1   
    42    25    40 1   
@<TRIPOS>SUBSTRUCTURE
     1 8U8         1 TEMP              0 ****  ****    0 ROOT
