@<TRIPOS>MOLECULE
8U9
   44    46     1     0     0
SMALL
abcg2


@<TRIPOS>ATOM
      1 C4           5.7050     0.7270     0.6370 ca         1 8U9      -0.107000
      2 C14         -2.8160    -0.5730     0.9130 ca         1 8U9       0.104100
      3 C5           5.4070    -0.3610    -0.1660 ca         1 8U9      -0.053500
      4 C6           4.2900    -0.3010    -0.9910 ca         1 8U9      -0.334500
      5 C11         -0.5010    -0.9960     0.8010 ca         1 8U9       0.154100
      6 C8           1.8000    -2.1130    -0.3090 ca         1 8U9       0.217000
      7 C9           0.6170    -2.0480    -1.0390 ca         1 8U9      -0.033000
      8 C10         -0.5250    -1.4840    -0.4970 ca         1 8U9      -0.182000
      9 C12          0.6810    -1.0670     1.5430 ca         1 8U9      -0.023000
     10 C13          1.8330    -1.6080     0.9800 ca         1 8U9      -0.056000
     11 N1           2.9580    -2.6840    -0.8920 nu         1 8U9      -0.874100
     12 C3           4.9030     1.8660     0.6300 ca         1 8U9      -0.073600
     13 C1           3.4740     0.8230    -1.0180 ca         1 8U9      -0.053500
     14 C15         -3.4300    -1.8140     0.9000 ca         1 8U9      -0.096000
     15 C16         -4.7250    -1.9200     0.4250 ca         1 8U9      -0.103000
     16 C17         -5.3970    -0.7940    -0.0230 ca         1 8U9       0.151000
     17 C18         -4.7810     0.4550    -0.0000 ca         1 8U9      -0.183300
     18 C19         -3.4770     0.5570     0.4680 ca         1 8U9      -0.056000
     19 C2           3.7920     1.9000    -0.2070 ca         1 8U9      -0.107000
     20 C20          0.7040    -0.5690     2.8770 cg         1 8U9       0.332000
     21 C21         -5.5010     1.6870    -0.4720 c3         1 8U9       0.366300
     22 F1          -5.8700     1.5860    -1.7530 f          1 8U9      -0.107000
     23 F2          -6.6070     1.9170     0.2430 f          1 8U9      -0.107000
     24 F3          -4.7380     2.7770    -0.3720 f          1 8U9      -0.107000
     25 O1           6.2330     2.9370     2.2590 o          1 8U9      -0.703500
     26 O2           4.4750     4.0400     1.4400 o          1 8U9      -0.703500
     27 O3           2.9330    -1.3060    -2.9880 o          1 8U9      -0.550500
     28 O4           5.0320    -2.4920    -2.2520 o          1 8U9      -0.550500
     29 S1           3.8420    -1.7230    -1.9370 sy         1 8U9       1.141600
     30 CL1         -7.0130    -0.9890    -0.5980 cl         1 8U9      -0.172000
     31 H1           6.5750     0.6900     1.2780 ha         1 8U9       0.137000
     32 H2           6.0420    -1.2370    -0.1490 ha         1 8U9       0.112000
     33 H3           0.5810    -2.4490    -2.0420 ha         1 8U9       0.144000
     34 H4          -1.4250    -1.4400    -1.0950 ha         1 8U9       0.129000
     35 H5           2.7450    -1.6410     1.5620 ha         1 8U9       0.143000
     36 H6           3.5640    -3.1640    -0.2340 hn         1 8U9       0.482000
     37 H7           2.6080     0.8660    -1.6630 ha         1 8U9       0.112000
     38 H8          -2.9150    -2.6950     1.2600 ha         1 8U9       0.140000
     39 H9          -5.2150    -2.8840     0.4080 ha         1 8U9       0.136000
     40 H10         -2.9670     1.5100     0.5000 ha         1 8U9       0.161000
     41 H11          3.1650     2.7810    -0.2220 ha         1 8U9       0.137000
     42 C7           5.2350     3.0590     1.5260 c          1 8U9       0.708600
     43 N2           0.7380    -0.1710     3.9570 n1         1 8U9      -0.438000
     44 O5          -1.5520    -0.4200     1.4230 os         1 8U9      -0.234200
@<TRIPOS>BOND
     1     1     3 ar  
     2     1    12 ar  
     3     1    31 1   
     4     2    14 ar  
     5     2    18 ar  
     6     2    44 1   
     7     3     4 ar  
     8     3    32 1   
     9     4    13 ar  
    10     4    29 1   
    11     5     8 ar  
    12     5     9 ar  
    13     5    44 1   
    14     6     7 ar  
    15     6    10 ar  
    16     6    11 1   
    17     7     8 ar  
    18     7    33 1   
    19     8    34 1   
    20     9    10 ar  
    21     9    20 1   
    22    10    35 1   
    23    11    29 1   
    24    11    36 1   
    25    12    19 ar  
    26    12    42 1   
    27    13    19 ar  
    28    13    37 1   
    29    14    15 ar  
    30    14    38 1   
    31    15    16 ar  
    32    15    39 1   
    33    16    17 ar  
    34    16    30 1   
    35    17    18 ar  
    36    17    21 1   
    37    18    40 1   
    38    19    41 1   
    39    20    43 3   
    40    21    22 1   
    41    21    23 1   
    42    21    24 1   
    43    25    42 1   
    44    26    42 1   
    45    27    29 2   
    46    28    29 2   
@<TRIPOS>SUBSTRUCTURE
     1 8U9         1 TEMP              0 ****  ****    0 ROOT
