@<TRIPOS>MOLECULE
8U9
   44    46     1     0     0
SMALL
No Charge or Current Charge


@<TRIPOS>ATOM
      1 C4           5.4020     1.2850     0.4670 ca         1 8U9      -0.107000
      2 C14         -2.8820    -0.5890     0.9100 ca         1 8U9       0.104100
      3 C5           5.2050    -0.0810     0.2020 ca         1 8U9      -0.053500
      4 C6           4.4640    -0.4860    -0.9250 ca         1 8U9      -0.334500
      5 C11         -0.5650    -1.2000     1.2650 ca         1 8U9       0.154100
      6 C8           1.9170    -2.2230     0.3620 ca         1 8U9       0.217000
      7 C9           1.1470    -1.3760    -0.4640 ca         1 8U9      -0.033000
      8 C10         -0.0830    -0.8630    -0.0140 ca         1 8U9      -0.182000
      9 C12          0.1980    -2.0400     2.1000 ca         1 8U9      -0.023000
     10 C13          1.4300    -2.5500     1.6410 ca         1 8U9      -0.056000
     11 N1           3.1470    -2.7510    -0.0440 nu         1 8U9      -0.874100
     12 C3           4.8640     2.2760    -0.3870 ca         1 8U9      -0.073600
     13 C1           3.9230     0.4910    -1.7840 ca         1 8U9      -0.053500
     14 C15         -3.1880    -1.5850    -0.0340 ca         1 8U9      -0.096000
     15 C16         -4.3410    -1.4610    -0.8250 ca         1 8U9      -0.103000
     16 C17         -5.1950    -0.3550    -0.6750 ca         1 8U9       0.151000
     17 C18         -4.9060     0.6500     0.2820 ca         1 8U9      -0.183300
     18 C19         -3.7380     0.5120     1.0740 ca         1 8U9      -0.056000
     19 C2           4.1210     1.8560    -1.5170 ca         1 8U9      -0.107000
     20 C20         -0.2690    -2.3890     3.4130 cg         1 8U9       0.332000
     21 C21         -5.8320     1.8630     0.4640 c3         1 8U9       0.366300
     22 F1          -5.9400     2.5880    -0.6730 f          1 8U9      -0.107000
     23 F2          -7.0820     1.4910     0.8230 f          1 8U9      -0.107000
     24 F3          -5.4010     2.7170     1.4190 f          1 8U9      -0.107000
     25 O1           5.7250     4.0740     0.8900 o          1 8U9      -0.703500
     26 O2           4.5960     4.5790    -0.8660 o          1 8U9      -0.703500
     27 O3           3.4740    -2.4430    -2.4990 o          1 8U9      -0.550500
     28 O4           5.4210    -2.9870    -0.9170 o          1 8U9      -0.550500
     29 S1           4.2050    -2.2400    -1.2450 sy         1 8U9       1.141600
     30 Cl1         -6.6230    -0.2760    -1.7090 cl         1 8U9      -0.172000
     31 H1           5.9770     1.5720     1.3450 ha         1 8U9       0.137000
     32 H2           5.6280    -0.8230     0.8780 ha         1 8U9       0.112000
     33 H3           1.4910    -1.1110    -1.4580 ha         1 8U9       0.144000
     34 H4          -0.6560    -0.2030    -0.6590 ha         1 8U9       0.129000
     35 H5           2.0150    -3.2020     2.2850 ha         1 8U9       0.143000
     36 H6           3.7090    -3.2420     0.6390 hn         1 8U9       0.482000
     37 H7           3.3480     0.2000    -2.6620 ha         1 8U9       0.112000
     38 H8          -2.5420    -2.4510    -0.1530 ha         1 8U9       0.140000
     39 H9          -4.5780    -2.2280    -1.5580 ha         1 8U9       0.136000
     40 H10         -3.4780     1.2570     1.8220 ha         1 8U9       0.161000
     41 H11          3.6940     2.5920    -2.1950 ha         1 8U9       0.137000
     42 C7           5.0780     3.7560    -0.0990 c          1 8U9       0.708600
     43 N2          -0.6380    -2.6820     4.4820 n1         1 8U9      -0.438000
     44 O5          -1.7650    -0.6870     1.7110 os         1 8U9      -0.234200
@<TRIPOS>BOND
     1     1     3 ar  
     2     1    12 ar  
     3     1    31 1   
     4     2    14 ar  
     5     2    18 ar  
     6     2    44 1   
     7     3     4 ar  
     8     3    32 1   
     9     4    13 ar  
    10     4    29 1   
    11     5     8 ar  
    12     5     9 ar  
    13     5    44 1   
    14     6     7 ar  
    15     6    10 ar  
    16     6    11 1   
    17     7     8 ar  
    18     7    33 1   
    19     8    34 1   
    20     9    10 ar  
    21     9    20 1   
    22    10    35 1   
    23    11    29 1   
    24    11    36 1   
    25    12    19 ar  
    26    12    42 1   
    27    13    19 ar  
    28    13    37 1   
    29    14    15 ar  
    30    14    38 1   
    31    15    16 ar  
    32    15    39 1   
    33    16    17 ar  
    34    16    30 1   
    35    17    18 ar  
    36    17    21 1   
    37    18    40 1   
    38    19    41 1   
    39    20    43 3   
    40    21    22 1   
    41    21    23 1   
    42    21    24 1   
    43    25    42 1   
    44    26    42 1   
    45    27    29 2   
    46    28    29 2   
@<TRIPOS>SUBSTRUCTURE
     1 8U9         1 TEMP              0 ****  ****    0 ROOT
