@<TRIPOS>MOLECULE
8UA
   21    21     1     0     0
SMALL
abcg2


@<TRIPOS>ATOM
      1 N1          -1.4700     0.0950     0.2080 ns         1 8UA      -0.502900
      2 C4           0.8720    -0.4730    -0.0700 ca         1 8UA       0.338300
      3 C5           1.9090    -1.2960    -0.5020 ca         1 8UA      -0.157000
      4 C6           3.2110    -0.9280    -0.2190 ca         1 8UA      -0.065000
      5 C7           3.4400     0.2490     0.4840 ca         1 8UA      -0.165000
      6 C8           2.3440     1.0000     0.8710 ca         1 8UA       0.348900
      7 C1          -3.6010     1.0110     0.8610 c3         1 8UA      -0.176100
      8 C2          -2.8000    -0.0590     0.1620 c          1 8UA       0.600100
      9 C3          -0.5570    -0.8510    -0.3710 c3         1 8UA       0.053700
     10 N2           1.0900     0.6480     0.6000 nb         1 8UA      -0.696000
     11 O1          -3.3330    -1.0120    -0.3940 o          1 8UA      -0.620100
     12 H1          -1.0560     0.8890     0.6750 hn         1 8UA       0.343500
     13 H2           1.6920    -2.2060    -1.0470 ha         1 8UA       0.128000
     14 H3           4.0370    -1.5490    -0.5390 ha         1 8UA       0.122000
     15 H4           4.4410     0.5770     0.7270 ha         1 8UA       0.126000
     16 H5           2.4770     1.9230     1.4220 h4         1 8UA       0.020100
     17 H6          -3.0070     1.8730     1.1560 hc         1 8UA       0.059033
     18 H7          -4.4080     1.3490     0.2120 hc         1 8UA       0.059033
     19 H8          -4.0580     0.5890     1.7570 hc         1 8UA       0.059033
     20 H9          -0.7480    -1.8590     0.0100 h1         1 8UA       0.061700
     21 H10         -0.6880    -0.9070    -1.4570 h1         1 8UA       0.061700
@<TRIPOS>BOND
     1     1     8 1   
     2     1     9 1   
     3     1    12 1   
     4     2     3 ar  
     5     2     9 1   
     6     2    10 ar  
     7     3     4 ar  
     8     3    13 1   
     9     4     5 ar  
    10     4    14 1   
    11     5     6 ar  
    12     5    15 1   
    13     6    10 ar  
    14     6    16 1   
    15     7     8 1   
    16     7    17 1   
    17     7    18 1   
    18     7    19 1   
    19     8    11 2   
    20     9    20 1   
    21     9    21 1   
@<TRIPOS>SUBSTRUCTURE
     1 8UA         1 TEMP              0 ****  ****    0 ROOT
