@<TRIPOS>MOLECULE
8UA
   21    21     1     0     0
SMALL
No Charge or Current Charge


@<TRIPOS>ATOM
      1 N1          -1.5390     0.1110     0.1810 ns         1 8UA      -0.502900
      2 C4           0.9130    -0.4150    -0.1350 ca         1 8UA       0.338300
      3 C5           1.9330    -1.3330    -0.4510 ca         1 8UA      -0.157000
      4 C6           3.2590    -1.0430    -0.0930 ca         1 8UA      -0.065000
      5 C7           3.5140     0.1660     0.5720 ca         1 8UA      -0.165000
      6 C8           2.4450     1.0330     0.8520 ca         1 8UA       0.348900
      7 C1          -3.7190     0.9320     0.9150 c3         1 8UA      -0.176100
      8 C2          -2.8990    -0.0560     0.0970 c          1 8UA       0.600100
      9 C3          -0.5410    -0.7150    -0.5220 c3         1 8UA       0.053700
     10 N2           1.1650     0.7560     0.5090 nb         1 8UA      -0.696000
     11 O1          -3.4090    -0.9340    -0.5840 o          1 8UA      -0.620100
     12 H1          -1.1970     0.8680     0.7640 hn         1 8UA       0.343500
     13 H2           1.6930    -2.2580    -0.9690 ha         1 8UA       0.128000
     14 H3           4.0660    -1.7360    -0.3250 ha         1 8UA       0.122000
     15 H4           4.5240     0.4350     0.8700 ha         1 8UA       0.126000
     16 H5           2.6170     1.9770     1.3670 h4         1 8UA       0.020100
     17 H6          -3.4410     1.9520     0.6260 hc         1 8UA       0.059033
     18 H7          -4.7980     0.7660     0.8220 hc         1 8UA       0.059033
     19 H8          -3.3920     0.8890     1.9600 hc         1 8UA       0.059033
     20 H9          -0.7510    -1.7720    -0.3100 h1         1 8UA       0.061700
     21 H10         -0.6560    -0.5600    -1.6020 h1         1 8UA       0.061700
@<TRIPOS>BOND
     1     1     8 1   
     2     1     9 1   
     3     1    12 1   
     4     2     3 ar  
     5     2     9 1   
     6     2    10 ar  
     7     3     4 ar  
     8     3    13 1   
     9     4     5 ar  
    10     4    14 1   
    11     5     6 ar  
    12     5    15 1   
    13     6    10 ar  
    14     6    16 1   
    15     7     8 1   
    16     7    17 1   
    17     7    18 1   
    18     7    19 1   
    19     8    11 2   
    20     9    20 1   
    21     9    21 1   
@<TRIPOS>SUBSTRUCTURE
     1 8UA         1 TEMP              0 ****  ****    0 ROOT
