@<TRIPOS>MOLECULE
8UB
   28    30     1     0     0
SMALL
No Charge or Current Charge


@<TRIPOS>ATOM
      1 C4           3.3330    -0.4480    -0.0080 ca         1 8UB       0.058600
      2 C5           4.7380    -0.4400    -0.0170 ca         1 8UB      -0.160000
      3 C6           1.2710    -1.7480     0.0230 c          1 8UB       0.437700
      4 N1           1.1740     0.8170    -0.0120 nc         1 8UB      -0.533100
      5 C7           0.5730    -0.3940     0.0090 cd         1 8UB       0.431600
      6 C8          -0.9020    -0.3770     0.0180 cf         1 8UB      -0.282600
      7 O            0.7200    -2.8440     0.0420 o          1 8UB      -0.534000
      8 N            2.6330    -1.6520     0.0130 ns         1 8UB      -0.367100
      9 C            5.4280     0.7820    -0.0380 ca         1 8UB      -0.059000
     10 C3           2.5860     0.7540    -0.0200 ca         1 8UB       0.068400
     11 C2           3.2990     1.9690    -0.0410 ca         1 8UB      -0.033000
     12 C1           4.7070     1.9860    -0.0500 ca         1 8UB      -0.143000
     13 H1           5.2940    -1.3740    -0.0070 ha         1 8UB       0.122000
     14 H2          -1.3520    -1.3680     0.0340 ha         1 8UB       0.204000
     15 H5           3.1620    -2.5150     0.0220 hn         1 8UB       0.330500
     16 H6           6.5160     0.7960    -0.0450 ha         1 8UB       0.118000
     17 H7           2.7540     2.9100    -0.0500 ha         1 8UB       0.134000
     18 H8           5.2370     2.9360    -0.0660 ha         1 8UB       0.123000
     19 C9          -1.7390     0.7030     0.0080 ce         1 8UB      -0.073200
     20 C10         -3.2000     0.6830     0.0170 cc         1 8UB      -0.196800
     21 C11         -4.0470     1.7630     0.0080 cd         1 8UB      -0.112000
     22 C12         -5.4250     1.4180     0.0210 cd         1 8UB      -0.136000
     23 C13         -5.6500     0.0660     0.0410 cc         1 8UB      -0.239000
     24 S1          -4.1300    -0.8230     0.0440 ss         1 8UB       0.224000
     25 H3          -1.3030     1.7050    -0.0080 ha         1 8UB       0.197000
     26 H9          -3.6970     2.7920    -0.0080 ha         1 8UB       0.135000
     27 H11         -6.2240     2.1540     0.0160 ha         1 8UB       0.135000
     28 H13         -6.5870    -0.4750     0.0550 h4         1 8UB       0.150000
@<TRIPOS>BOND
     1     1     2 ar  
     2     1     8 1   
     3     1    10 ar  
     4     2     9 ar  
     5     2    13 1   
     6     3     5 1   
     7     3     7 2   
     8     3     8 1   
     9     4     5 2   
    10     4    10 1   
    11     5     6 1   
    12     6    14 1   
    13     6    19 2   
    14     8    15 1   
    15     9    12 ar  
    16     9    16 1   
    17    10    11 ar  
    18    11    12 ar  
    19    11    17 1   
    20    12    18 1   
    21    19    20 1   
    22    19    25 1   
    23    20    21 2   
    24    20    24 1   
    25    21    22 1   
    26    21    26 1   
    27    22    23 2   
    28    22    27 1   
    29    23    24 1   
    30    23    28 1   
@<TRIPOS>SUBSTRUCTURE
     1 8UB         1 TEMP              0 ****  ****    0 ROOT
