@<TRIPOS>MOLECULE
8UB
   28    30     1     0     0
SMALL
abcg2


@<TRIPOS>ATOM
      1 C4           3.2920    -0.4460    -0.0150 ca         1 8UB       0.058600
      2 C5           4.6850    -0.3950    -0.0310 ca         1 8UB      -0.160000
      3 C6           1.2540    -1.7430     0.0100 c          1 8UB       0.437700
      4 N1           1.1680     0.6940     0.0070 nc         1 8UB      -0.533100
      5 C7           0.5440    -0.4360     0.0150 cd         1 8UB       0.431600
      6 C8          -0.9070    -0.4880     0.0300 cf         1 8UB      -0.282600
      7 O            0.6840    -2.8220     0.0180 o          1 8UB      -0.534000
      8 N            2.6070    -1.6350    -0.0060 ns         1 8UB      -0.367100
      9 C            5.3140     0.8350    -0.0380 ca         1 8UB      -0.059000
     10 C3           2.5330     0.7340    -0.0070 ca         1 8UB       0.068400
     11 C2           3.1950     1.9680    -0.0140 ca         1 8UB      -0.033000
     12 C1           4.5720     2.0200    -0.0290 ca         1 8UB      -0.143000
     13 H1           5.2630    -1.3110    -0.0370 ha         1 8UB       0.122000
     14 H2          -1.3530    -1.4750     0.0650 ha         1 8UB       0.204000
     15 H5           3.1370    -2.4980    -0.0150 hn         1 8UB       0.330500
     16 H6           6.3940     0.8770    -0.0510 ha         1 8UB       0.118000
     17 H7           2.5990     2.8720    -0.0060 ha         1 8UB       0.134000
     18 H8           5.0800     2.9750    -0.0330 ha         1 8UB       0.123000
     19 C9          -1.6790     0.6120     0.0030 ce         1 8UB      -0.073200
     20 C10         -3.1160     0.6390     0.0200 cc         1 8UB      -0.196800
     21 C11         -3.9060     1.7620    -0.0290 cd         1 8UB      -0.112000
     22 C12         -5.2900     1.4730     0.0020 cd         1 8UB      -0.136000
     23 C13         -5.5400     0.1350     0.0750 cc         1 8UB      -0.239000
     24 S1          -4.0970    -0.7840     0.1080 ss         1 8UB       0.224000
     25 H3          -1.2030     1.5870    -0.0380 ha         1 8UB       0.197000
     26 H9          -3.4970     2.7610    -0.0880 ha         1 8UB       0.135000
     27 H11         -6.0670     2.2230    -0.0310 ha         1 8UB       0.135000
     28 H13         -6.4990    -0.3600     0.1150 h4         1 8UB       0.150000
@<TRIPOS>BOND
     1     1     2 ar  
     2     1     8 1   
     3     1    10 ar  
     4     2     9 ar  
     5     2    13 1   
     6     3     5 1   
     7     3     7 2   
     8     3     8 1   
     9     4     5 2   
    10     4    10 1   
    11     5     6 1   
    12     6    14 1   
    13     6    19 2   
    14     8    15 1   
    15     9    12 ar  
    16     9    16 1   
    17    10    11 ar  
    18    11    12 ar  
    19    11    17 1   
    20    12    18 1   
    21    19    20 1   
    22    19    25 1   
    23    20    21 2   
    24    20    24 1   
    25    21    22 1   
    26    21    26 1   
    27    22    23 2   
    28    22    27 1   
    29    23    24 1   
    30    23    28 1   
@<TRIPOS>SUBSTRUCTURE
     1 8UB         1 TEMP              0 ****  ****    0 ROOT
