@<TRIPOS>MOLECULE
8UC
   50    54     1     0     0
SMALL
No Charge or Current Charge


@<TRIPOS>ATOM
      1 C2           2.8240     0.7450    -1.9270 c2         1 8UC       0.396100
      2 C3           2.0720    -0.2980    -1.4980 ce         1 8UC      -0.244900
      3 C4           1.5610    -0.3070    -0.0140 c5         1 8UC       0.190800
      4 C5           1.6890     1.0490     0.6250 cc         1 8UC      -0.219300
      5 C6           2.5050     2.0680     0.0130 cc         1 8UC       0.469300
      6 N9           1.4900    -2.1310    -3.2900 n1         1 8UC      -0.502000
      7 C10          1.2070     1.7980     1.7450 cd         1 8UC      -0.090300
      8 N12          2.6460     3.2990     0.5860 nd         1 8UC      -0.508800
      9 C13          0.2300     1.4160     2.8590 c3         1 8UC      -0.040800
     10 C17          0.0110    -2.0550     0.4760 ca         1 8UC      -0.107300
     11 C19         -2.3220    -0.4950     0.1060 cp         1 8UC      -0.028000
     12 C35         -2.4070    -1.8680     0.4690 ca         1 8UC      -0.134000
     13 C38          1.3580    -2.7350     0.5880 c5         1 8UC      -0.023100
     14 C41         -3.5530     0.3350    -0.0860 cp         1 8UC       0.008000
     15 C18         -1.2490    -2.6450     0.6460 ca         1 8UC       0.182000
     16 C14          2.3270    -1.4920     0.7800 c5         1 8UC      -0.035000
     17 C30          2.4630    -1.2080     2.3070 c3         1 8UC      -0.080600
     18 C15          3.7760    -1.7880     0.2860 c3         1 8UC      -0.080600
     19 C46         -4.7590    -0.2150    -0.5810 ca         1 8UC      -0.156000
     20 C45         -5.8910     0.6000    -0.7450 ca         1 8UC       0.333900
     21 N44         -5.8980     1.9190    -0.4480 nb         1 8UC      -0.662000
     22 C43         -4.7540     2.4600     0.0280 ca         1 8UC       0.333900
     23 C42         -3.5780     1.7170     0.2200 ca         1 8UC      -0.156000
     24 C20         -1.0290     0.0660    -0.0690 ca         1 8UC      -0.088000
     25 C16          0.1180    -0.7210     0.1410 ca         1 8UC      -0.061300
     26 C8           1.7500    -1.3360    -2.4780 cg         1 8UC       0.312700
     27 N7           3.3630     0.9110    -3.1820 nv         1 8UC      -0.956000
     28 N11          1.8060     3.1520     1.7210 na         1 8UC      -0.007200
     29 O1           3.1400     1.8370    -1.1740 os         1 8UC      -0.332400
     30 H2           0.7580     1.2570     3.8070 hc         1 8UC       0.059033
     31 H3          -0.5140     2.2060     3.0200 hc         1 8UC       0.059033
     32 H4          -0.3170     0.4960     2.6260 hc         1 8UC       0.059033
     33 H5          -3.3760    -2.3350     0.6220 ha         1 8UC       0.134000
     34 H6           1.4100    -3.4450     1.4220 hc         1 8UC       0.066700
     35 H7           1.5880    -3.3010    -0.3220 hc         1 8UC       0.066700
     36 H8           1.4860    -1.0610     2.7790 hc         1 8UC       0.037033
     37 H9           2.9370    -2.0480     2.8290 hc         1 8UC       0.037033
     38 H10          3.0750    -0.3200     2.5060 hc         1 8UC       0.037033
     39 H11          4.3990    -0.8860     0.3260 hc         1 8UC       0.037033
     40 H12          4.2610    -2.5510     0.9070 hc         1 8UC       0.037033
     41 H13          3.8010    -2.1670    -0.7410 hc         1 8UC       0.037033
     42 H14         -4.8230    -1.2640    -0.8520 ha         1 8UC       0.124000
     43 H15         -6.8210     0.1850    -1.1300 h4         1 8UC       0.018600
     44 H16         -4.7820     3.5230     0.2650 h4         1 8UC       0.018600
     45 H17         -2.7000     2.2150     0.6180 ha         1 8UC       0.124000
     46 H18         -0.9170     1.1040    -0.3690 ha         1 8UC       0.127000
     47 H19          2.9040     0.4110    -3.9380 hn         1 8UC       0.502000
     48 H20          3.6560     1.8570    -3.4100 hn         1 8UC       0.502000
     49 H1           1.6610     3.9060     2.3960 hn         1 8UC       0.379000
     50 F29         -1.3540    -3.9510     0.9760 f          1 8UC      -0.175000
@<TRIPOS>BOND
     1     1     2 2   
     2     1    27 1   
     3     1    29 1   
     4     2     3 1   
     5     2    26 1   
     6     3     4 1   
     7     3    16 1   
     8     3    25 1   
     9     4     5 1   
    10     4     7 2   
    11     5     8 2   
    12     5    29 1   
    13     6    26 3   
    14     7     9 1   
    15     7    28 1   
    16     8    28 1   
    17     9    30 1   
    18     9    31 1   
    19     9    32 1   
    20    10    13 1   
    21    10    15 ar  
    22    10    25 ar  
    23    11    12 ar  
    24    11    14 1   
    25    11    24 ar  
    26    12    15 ar  
    27    12    33 1   
    28    13    16 1   
    29    13    34 1   
    30    13    35 1   
    31    14    19 ar  
    32    14    23 ar  
    33    15    50 1   
    34    16    17 1   
    35    16    18 1   
    36    17    36 1   
    37    17    37 1   
    38    17    38 1   
    39    18    39 1   
    40    18    40 1   
    41    18    41 1   
    42    19    20 ar  
    43    19    42 1   
    44    20    21 ar  
    45    20    43 1   
    46    21    22 ar  
    47    22    23 ar  
    48    22    44 1   
    49    23    45 1   
    50    24    25 ar  
    51    24    46 1   
    52    27    47 1   
    53    27    48 1   
    54    28    49 1   
@<TRIPOS>SUBSTRUCTURE
     1 8UC         1 TEMP              0 ****  ****    0 ROOT
