@<TRIPOS>MOLECULE
8UC
   50    54     1     0     0
SMALL
bcc


@<TRIPOS>ATOM
      1 C2           2.8070     0.7280    -1.9170 c2         1 8UC       0.396100
      2 C3           1.9080    -0.1710    -1.4040 ce         1 8UC      -0.244900
      3 C4           1.5170    -0.2410     0.0750 c5         1 8UC       0.190800
      4 C5           1.7860     1.1240     0.6180 cc         1 8UC      -0.284600
      5 C6           2.6460     2.0080    -0.0320 cc         1 8UC       0.534600
      6 N9           0.9880    -1.9160    -3.0410 n1         1 8UC      -0.412800
      7 C10          1.3590     1.8590     1.7160 cd         1 8UC      -0.039600
      8 N12          2.7850     3.1640     0.5570 nd         1 8UC      -0.508800
      9 C13          0.4320     1.5720     2.8420 c3         1 8UC      -0.040800
     10 C17          0.0110    -2.0530     0.3980 ca         1 8UC      -0.107300
     11 C19         -2.3160    -0.5370     0.0710 cp         1 8UC      -0.028000
     12 C35         -2.3940    -1.9130     0.3010 ca         1 8UC      -0.152000
     13 C38          1.3770    -2.6480     0.5300 c5         1 8UC      -0.023100
     14 C41         -3.5490     0.2570    -0.0870 cp         1 8UC       0.008000
     15 C18         -1.2330    -2.6450     0.4550 ca         1 8UC       0.146900
     16 C14          2.2670    -1.4180     0.8250 c5         1 8UC      -0.035000
     17 C30          2.2680    -1.1810     2.3350 c3         1 8UC      -0.080600
     18 C15          3.7010    -1.6080     0.3560 c3         1 8UC      -0.080600
     19 C46         -4.6730    -0.2590    -0.7280 ca         1 8UC      -0.239300
     20 C45         -5.8030     0.5330    -0.8530 ca         1 8UC       0.399200
     21 N44         -5.8880     1.7760    -0.3930 nb         1 8UC      -0.662000
     22 C43         -4.8170     2.2680     0.2200 ca         1 8UC       0.399200
     23 C42         -3.6390     1.5610     0.3960 ca         1 8UC      -0.239300
     24 C20         -1.0650     0.0770    -0.0030 ca         1 8UC      -0.106000
     25 C16          0.0730    -0.6870     0.1680 ca         1 8UC      -0.061300
     26 C8           1.4030    -1.1340    -2.2950 cg         1 8UC       0.223500
     27 N7           3.3480     0.6930    -3.1420 nv         1 8UC      -0.845600
     28 N11          1.9910     3.0430     1.6240 na         1 8UC      -0.007600
     29 O1           3.2840     1.7580    -1.2010 os         1 8UC      -0.332400
     30 H2           0.9700     1.1910     3.7110 hc         1 8UC       0.059033
     31 H3          -0.0930     2.4750     3.1510 hc         1 8UC       0.059033
     32 H4          -0.3120     0.8300     2.5640 hc         1 8UC       0.059033
     33 H5          -3.3520    -2.4110     0.3860 ha         1 8UC       0.152000
     34 H6           1.4480    -3.4010     1.3170 hc         1 8UC       0.066700
     35 H7           1.6690    -3.1400    -0.4030 hc         1 8UC       0.066700
     36 H8           1.2640    -1.0200     2.7290 hc         1 8UC       0.037033
     37 H9           2.6790    -2.0540     2.8440 hc         1 8UC       0.037033
     38 H10          2.8820    -0.3220     2.6100 hc         1 8UC       0.037033
     39 H11          4.2860    -0.6960     0.4960 hc         1 8UC       0.037033
     40 H12          4.1840    -2.3960     0.9370 hc         1 8UC       0.037033
     41 H13          3.7610    -1.8880    -0.6950 hc         1 8UC       0.037033
     42 H14         -4.6730    -1.2560    -1.1470 ha         1 8UC       0.142000
     43 H15         -6.6800     0.1410    -1.3570 h4         1 8UC       0.018600
     44 H16         -4.8970     3.2820     0.5970 h4         1 8UC       0.018600
     45 H17         -2.8150     2.0240     0.9230 ha         1 8UC       0.142000
     46 H18         -0.9810     1.1380    -0.2060 ha         1 8UC       0.145000
     47 H19          3.0350     0.0010    -3.8020 hn         1 8UC       0.446800
     48 H20          3.6960     1.5490    -3.5450 hn         1 8UC       0.446800
     49 H1           1.9020     3.8180     2.2620 hn         1 8UC       0.328700
     50 F29         -1.3210    -3.9660     0.6780 f          1 8UC      -0.139900
@<TRIPOS>BOND
     1     1     2 2   
     2     1    27 1   
     3     1    29 1   
     4     2     3 1   
     5     2    26 1   
     6     3     4 1   
     7     3    16 1   
     8     3    25 1   
     9     4     5 1   
    10     4     7 2   
    11     5     8 2   
    12     5    29 1   
    13     6    26 3   
    14     7     9 1   
    15     7    28 1   
    16     8    28 1   
    17     9    30 1   
    18     9    31 1   
    19     9    32 1   
    20    10    13 1   
    21    10    15 ar  
    22    10    25 ar  
    23    11    12 ar  
    24    11    14 1   
    25    11    24 ar  
    26    12    15 ar  
    27    12    33 1   
    28    13    16 1   
    29    13    34 1   
    30    13    35 1   
    31    14    19 ar  
    32    14    23 ar  
    33    15    50 1   
    34    16    17 1   
    35    16    18 1   
    36    17    36 1   
    37    17    37 1   
    38    17    38 1   
    39    18    39 1   
    40    18    40 1   
    41    18    41 1   
    42    19    20 ar  
    43    19    42 1   
    44    20    21 ar  
    45    20    43 1   
    46    21    22 ar  
    47    22    23 ar  
    48    22    44 1   
    49    23    45 1   
    50    24    25 ar  
    51    24    46 1   
    52    27    47 1   
    53    27    48 1   
    54    28    49 1   
@<TRIPOS>SUBSTRUCTURE
     1 8UC         1 TEMP              0 ****  ****    0 ROOT
