@<TRIPOS>MOLECULE
8UD
   20    20     1     0     0
SMALL
abcg2


@<TRIPOS>ATOM
      1 N1          -2.1580     0.8330    -0.1710 ns         1 8UD      -0.498900
      2 C4           0.6240     1.4210     0.2450 ca         1 8UD      -0.008000
      3 C5           1.9840     1.6690     0.1560 ca         1 8UD      -0.244000
      4 C6           2.8090     0.5830    -0.0780 ca         1 8UD       0.415900
      5 C7           1.0660    -0.9110    -0.1060 ca         1 8UD       0.656900
      6 C1          -3.5940     0.7030    -0.0910 c3         1 8UD       0.094300
      7 C2          -1.3310    -0.1510     0.2080 c          1 8UD       0.629700
      8 C3           0.1260     0.1340     0.1020 ca         1 8UD      -0.284600
      9 N2           2.3750    -0.6610    -0.2030 nb         1 8UD      -0.766000
     10 O1          -1.7590    -1.2260     0.6270 o          1 8UD      -0.635100
     11 H1          -1.7870     1.6450    -0.6340 hn         1 8UD       0.317500
     12 H2          -0.2090    -2.4810     0.0770 hn         1 8UD       0.499500
     13 H3           1.4270    -2.8870    -0.2490 hn         1 8UD       0.499500
     14 H4          -0.0490     2.2450     0.4480 ha         1 8UD       0.111000
     15 H5           2.3880     2.6650     0.2720 ha         1 8UD       0.127000
     16 H6           3.8820     0.7210    -0.1590 h4         1 8UD       0.017100
     17 H7          -3.9190     0.4930     0.9280 h1         1 8UD       0.041367
     18 H8          -4.0390     1.6430    -0.4050 h1         1 8UD       0.041367
     19 H9          -3.9690    -0.0890    -0.7410 h1         1 8UD       0.041367
     20 N3           0.6930    -2.1990    -0.2690 nv         1 8UD      -1.054900
@<TRIPOS>BOND
     1     1     6 1   
     2     1     7 1   
     3     1    11 1   
     4     2     3 ar  
     5     2     8 ar  
     6     2    14 1   
     7     3     4 ar  
     8     3    15 1   
     9     4     9 ar  
    10     4    16 1   
    11     5     8 ar  
    12     5     9 ar  
    13     5    20 1   
    14     6    17 1   
    15     6    18 1   
    16     6    19 1   
    17     7     8 1   
    18     7    10 2   
    19    12    20 1   
    20    13    20 1   
@<TRIPOS>SUBSTRUCTURE
     1 8UD         1 TEMP              0 ****  ****    0 ROOT
