@<TRIPOS>MOLECULE
8UD
   20    20     1     0     0
SMALL
No Charge or Current Charge


@<TRIPOS>ATOM
      1 N1          -2.2120     0.8550    -0.0730 ns         1 8UD      -0.498900
      2 C4           0.5960     1.4330     0.0840 ca         1 8UD      -0.008000
      3 C5           1.9830     1.6380     0.0590 ca         1 8UD      -0.244000
      4 C6           2.8410     0.5340    -0.0380 ca         1 8UD       0.415900
      5 C7           1.0760    -0.9100    -0.0990 ca         1 8UD       0.656900
      6 C1          -3.6730     0.7500    -0.0320 c3         1 8UD       0.094300
      7 C2          -1.3530    -0.2130     0.0510 c          1 8UD       0.629700
      8 C3           0.1150     0.1060     0.0050 ca         1 8UD      -0.284600
      9 N2           2.3890    -0.7340    -0.1160 nb         1 8UD      -0.766000
     10 O1          -1.7850    -1.3460     0.2190 o          1 8UD      -0.635100
     11 H1          -1.7970     1.7650    -0.2210 hn         1 8UD       0.317500
     12 H2          -0.1300    -2.4730     0.0630 hn         1 8UD       0.499500
     13 H3           1.5680    -2.8220     0.0810 hn         1 8UD       0.499500
     14 H4          -0.0680     2.2900     0.1780 ha         1 8UD       0.111000
     15 H5           2.3960     2.6410     0.1210 ha         1 8UD       0.127000
     16 H6           3.9220     0.6690    -0.0550 h4         1 8UD       0.017100
     17 H7          -3.9870     0.3340     0.9340 h1         1 8UD       0.041367
     18 H8          -4.1160     1.7470    -0.1580 h1         1 8UD       0.041367
     19 H9          -4.0200     0.0950    -0.8420 h1         1 8UD       0.041367
     20 N3           0.8160    -2.2090    -0.2040 nv         1 8UD      -1.054900
@<TRIPOS>BOND
     1     1     6 1   
     2     1     7 1   
     3     1    11 1   
     4     2     3 ar  
     5     2     8 ar  
     6     2    14 1   
     7     3     4 ar  
     8     3    15 1   
     9     4     9 ar  
    10     4    16 1   
    11     5     8 ar  
    12     5     9 ar  
    13     5    20 1   
    14     6    17 1   
    15     6    18 1   
    16     6    19 1   
    17     7     8 1   
    18     7    10 2   
    19    12    20 1   
    20    13    20 1   
@<TRIPOS>SUBSTRUCTURE
     1 8UD         1 TEMP              0 ****  ****    0 ROOT
