@<TRIPOS>MOLECULE
8UE
   75    80     1     0     0
SMALL
No Charge or Current Charge


@<TRIPOS>ATOM
      1 CAA         90.8110   162.7090    97.7200 c6         1 8UE      -0.131700
      2 CAB         91.7030   162.8120    96.4440 c6         1 8UE      -0.052700
      3 CAC         91.2070   163.9620    95.5350 c6         1 8UE      -0.069400
      4 CAD         91.7570   161.4770    95.6370 c6         1 8UE      -0.039200
      5 CAE         90.6190   161.3120    94.6310 c2         1 8UE      -0.109400
      6 CAF         90.5910   159.9750    93.9150 c3         1 8UE      -0.054900
      7 CAG         89.7370   162.2980    94.3850 c2         1 8UE      -0.225200
      8 CAH         89.7570   163.6470    95.0970 c6         1 8UE       0.036800
      9 CAI         88.8320   163.6210    96.3290 ca         1 8UE      -0.169300
     10 CAJ         89.3460   163.1390    97.5480 ca         1 8UE       0.418300
     11 NAK         88.6300   163.0970    98.6910 nb         1 8UE      -0.707000
     12 CAL         87.3600   163.5470    98.6910 ca         1 8UE       0.307000
     13 CAM         86.6240   163.4990    99.8900 ca         1 8UE      -0.083000
     14 CAN         85.3060   163.9700    99.9490 ca         1 8UE       0.129000
     15 Cl1         84.4050   163.8920   101.4610 cl         1 8UE      -0.200000
     16 CAP         84.7040   164.5070    98.8050 ca         1 8UE      -0.116000
     17 CAQ         85.4230   164.5650    97.5990 ca         1 8UE      -0.087000
     18 CAR         86.7550   164.0780    97.5270 ca         1 8UE      -0.136000
     19 CAS         87.5020   164.0970    96.3200 ca         1 8UE       0.364000
     20 NAT         86.9220   164.6160    95.1510 nu         1 8UE      -0.960200
     21 CAU         86.3770   163.7790    94.0670 c3         1 8UE       0.266100
     22 CBM         85.4820   162.6790    94.6330 ca         1 8UE      -0.114300
     23 CBN         84.1390   162.9560    94.9660 ca         1 8UE      -0.104500
     24 CBO         83.3290   161.9620    95.5410 ca         1 8UE      -0.092000
     25 CBL         85.9930   161.3810    94.8550 ca         1 8UE      -0.104500
     26 CBK         85.1790   160.3830    95.4160 ca         1 8UE      -0.092000
     27 CBJ         83.8450   160.6700    95.7740 ca         1 8UE      -0.083300
     28 CAV         82.9800   159.5980    96.4330 c3         1 8UE      -0.114100
     29 CAW         83.4490   159.3430    97.8710 c          1 8UE       0.603100
     30 OAX         84.3610   158.5740    98.1400 o          1 8UE      -0.595100
     31 NAY         82.7940   160.0760    98.8360 ns         1 8UE      -0.503900
     32 CAZ         83.1040   160.0390   100.2650 c3         1 8UE       0.150300
     33 CBA         82.1500   159.1250   101.0200 ca         1 8UE      -0.108300
     34 CBB         80.9170   159.6210   101.4920 ca         1 8UE      -0.153000
     35 CBC         82.4950   157.7780   101.2520 ca         1 8UE      -0.090000
     36 CBD         81.6210   156.9340   101.9580 ca         1 8UE      -0.123000
     37 CBE         80.3970   157.4310   102.4330 ca         1 8UE       0.121100
     38 OBF         79.5500   156.6110   103.1230 oh         1 8UE      -0.534100
     39 CBG         80.0340   158.7750   102.2010 ca         1 8UE       0.051100
     40 OBH         78.8120   159.2140   102.6860 os         1 8UE      -0.367100
     41 CBI         78.3370   160.5580   102.4720 c3         1 8UE       0.156900
     42 H1          90.8500   161.6940    98.1380 hc         1 8UE       0.063700
     43 H2          91.2520   163.3550    98.4920 hc         1 8UE       0.063700
     44 H3          92.7280   163.0370    96.7720 hc         1 8UE       0.051700
     45 H4          91.8580   164.0600    94.6540 hc         1 8UE       0.048700
     46 H5          91.2470   164.9250    96.0670 hc         1 8UE       0.048700
     47 H6          92.7060   161.4410    95.0830 hc         1 8UE       0.046700
     48 H7          91.7830   160.6180    96.3230 hc         1 8UE       0.046700
     49 H8          90.4510   159.1520    94.6270 hc         1 8UE       0.042033
     50 H9          89.7730   159.9210    93.1850 hc         1 8UE       0.042033
     51 H10         91.5280   159.7960    93.3720 hc         1 8UE       0.042033
     52 H11         88.9650   162.1580    93.6310 ha         1 8UE       0.178000
     53 H12         89.4430   164.4320    94.3930 hc         1 8UE       0.060700
     54 H13         87.0860   163.0920   100.7850 ha         1 8UE       0.146000
     55 H14         83.6820   164.8780    98.8520 ha         1 8UE       0.129000
     56 H15         84.9280   164.9890    96.7300 ha         1 8UE       0.106000
     57 H16         86.3490   165.4360    95.3430 hn         1 8UE       0.466000
     58 H17         87.1880   163.3280    93.4850 h1         1 8UE       0.060700
     59 H18         85.7960   164.3990    93.3690 h1         1 8UE       0.060700
     60 H19         83.7280   163.9520    94.8000 ha         1 8UE       0.116000
     61 H20         82.3010   162.2040    95.8110 ha         1 8UE       0.118000
     62 H21         87.0260   161.1450    94.6050 ha         1 8UE       0.116000
     63 H22         85.5920   159.3890    95.5870 ha         1 8UE       0.118000
     64 H23         81.9380   159.9400    96.4470 hc         1 8UE       0.068700
     65 H24         83.0540   158.6650    95.8630 hc         1 8UE       0.068700
     66 H25         82.0570   160.6940    98.5190 hn         1 8UE       0.314500
     67 H26         84.1400   159.7060   100.4150 h1         1 8UE       0.063700
     68 H27         83.0290   161.0590   100.6660 h1         1 8UE       0.063700
     69 H28         80.6640   160.6610   101.3020 ha         1 8UE       0.114000
     70 H29         83.4420   157.3860   100.8860 ha         1 8UE       0.118000
     71 H30         81.8920   155.8970   102.1380 ha         1 8UE       0.131000
     72 H31         78.7700   157.1600   103.3650 ho         1 8UE       0.481000
     73 H32         77.3530   160.6920   102.9380 h1         1 8UE       0.042033
     74 H33         79.0240   161.2910   102.9140 h1         1 8UE       0.042033
     75 H34         78.2370   160.7700   101.3990 h1         1 8UE       0.042033
@<TRIPOS>BOND
     1     1     2 1   
     2     1    10 1   
     3     1    42 1   
     4     1    43 1   
     5     2     3 1   
     6     2     4 1   
     7     2    44 1   
     8     3     8 1   
     9     3    45 1   
    10     3    46 1   
    11     4     5 1   
    12     4    47 1   
    13     4    48 1   
    14     5     6 1   
    15     5     7 2   
    16     6    49 1   
    17     6    50 1   
    18     6    51 1   
    19     7     8 1   
    20     7    52 1   
    21     8     9 1   
    22     8    53 1   
    23     9    10 ar  
    24     9    19 ar  
    25    10    11 ar  
    26    11    12 ar  
    27    12    13 ar  
    28    12    18 ar  
    29    13    14 ar  
    30    13    54 1   
    31    14    15 1   
    32    14    16 ar  
    33    16    17 ar  
    34    16    55 1   
    35    17    18 ar  
    36    17    56 1   
    37    18    19 ar  
    38    19    20 1   
    39    20    21 1   
    40    20    57 1   
    41    21    22 1   
    42    21    58 1   
    43    21    59 1   
    44    22    23 ar  
    45    22    25 ar  
    46    23    24 ar  
    47    23    60 1   
    48    24    27 ar  
    49    24    61 1   
    50    25    26 ar  
    51    25    62 1   
    52    26    27 ar  
    53    26    63 1   
    54    27    28 1   
    55    28    29 1   
    56    28    64 1   
    57    28    65 1   
    58    29    30 2   
    59    29    31 1   
    60    31    32 1   
    61    31    66 1   
    62    32    33 1   
    63    32    67 1   
    64    32    68 1   
    65    33    34 ar  
    66    33    35 ar  
    67    34    39 ar  
    68    34    69 1   
    69    35    36 ar  
    70    35    70 1   
    71    36    37 ar  
    72    36    71 1   
    73    37    38 1   
    74    37    39 ar  
    75    38    72 1   
    76    39    40 1   
    77    40    41 1   
    78    41    73 1   
    79    41    74 1   
    80    41    75 1   
@<TRIPOS>SUBSTRUCTURE
     1 8UE         1 TEMP              0 ****  ****    0 ROOT
