@<TRIPOS>MOLECULE
8UE
   75    80     1     0     0
SMALL
abcg2


@<TRIPOS>ATOM
      1 CAA         89.4940   163.4540    98.8200 c6         1 8UE      -0.131700
      2 CAB         90.3950   162.4010    98.1550 c6         1 8UE      -0.052700
      3 CAC         90.5830   162.7460    96.6870 c6         1 8UE      -0.069400
      4 CAD         89.8400   160.9840    98.2730 c6         1 8UE      -0.039200
      5 CAE         88.7090   160.7070    97.3250 c2         1 8UE      -0.109400
      6 CAF         87.9050   159.4690    97.5820 c3         1 8UE      -0.054900
      7 CAG         88.4470   161.5190    96.3020 c2         1 8UE      -0.225200
      8 CAH         89.2080   162.7920    96.0260 c6         1 8UE       0.036800
      9 CAI         88.4180   163.9680    96.5590 ca         1 8UE      -0.169300
     10 CAJ         88.5990   164.2820    97.9270 ca         1 8UE       0.418300
     11 NAK         88.0530   165.3120    98.5280 nb         1 8UE      -0.707000
     12 CAL         87.2410   166.1120    97.8110 ca         1 8UE       0.307000
     13 CAM         86.6610   167.2160    98.4790 ca         1 8UE      -0.083000
     14 CAN         85.8050   168.0430    97.8120 ca         1 8UE       0.129000
     15 CL1         85.0960   169.3970    98.6270 cl         1 8UE      -0.200000
     16 CAP         85.4710   167.8150    96.4670 ca         1 8UE      -0.116000
     17 CAQ         86.0340   166.7550    95.8100 ca         1 8UE      -0.087000
     18 CAR         86.9490   165.8860    96.4460 ca         1 8UE      -0.136000
     19 CAS         87.5810   164.7700    95.7930 ca         1 8UE       0.364000
     20 NAT         87.3610   164.6090    94.4450 nu         1 8UE      -0.960200
     21 CAU         87.0710   163.3850    93.7290 c3         1 8UE       0.266100
     22 CBM         85.8800   162.5820    94.2050 ca         1 8UE      -0.114300
     23 CBN         84.9140   163.0820    95.0680 ca         1 8UE      -0.104500
     24 CBO         83.8600   162.2800    95.4910 ca         1 8UE      -0.092000
     25 CBL         85.7450   161.2700    93.7520 ca         1 8UE      -0.104500
     26 CBK         84.6910   160.4740    94.1650 ca         1 8UE      -0.092000
     27 CBJ         83.7370   160.9660    95.0550 ca         1 8UE      -0.083300
     28 CAV         82.6450   160.0750    95.5820 c3         1 8UE      -0.114100
     29 CAW         83.1850   159.2900    96.7680 c          1 8UE       0.603100
     30 OAX         83.9020   158.3140    96.6150 o          1 8UE      -0.595100
     31 NAY         82.8580   159.7890    97.9730 ns         1 8UE      -0.503900
     32 CAZ         83.3420   159.2560    99.2200 c3         1 8UE       0.150300
     33 CBA         82.3730   158.3390    99.9320 ca         1 8UE      -0.108300
     34 CBB         82.6080   158.0490   101.2790 ca         1 8UE      -0.153000
     35 CBC         81.2880   157.7570    99.3030 ca         1 8UE      -0.090000
     36 CBD         80.4450   156.8940   100.0000 ca         1 8UE      -0.123000
     37 CBE         80.6780   156.6000   101.3300 ca         1 8UE       0.121100
     38 OBF         79.8450   155.7610   101.9810 oh         1 8UE      -0.534100
     39 CBG         81.7770   157.1910   101.9780 ca         1 8UE       0.051100
     40 OBH         81.9170   156.8520   103.2780 os         1 8UE      -0.367100
     41 CBI         83.0120   157.3760   104.0010 c3         1 8UE       0.156900
     42 H1          88.8590   162.9820    99.5760 hc         1 8UE       0.063700
     43 H2          90.1130   164.1650    99.3710 hc         1 8UE       0.063700
     44 H3          91.3620   162.4220    98.6640 hc         1 8UE       0.051700
     45 H4          91.2020   161.9920    96.1930 hc         1 8UE       0.048700
     46 H5          91.0900   163.7070    96.5680 hc         1 8UE       0.048700
     47 H6          90.6400   160.2570    98.0870 hc         1 8UE       0.046700
     48 H7          89.5120   160.7950    99.3010 hc         1 8UE       0.046700
     49 H8          87.4450   159.5010    98.5740 hc         1 8UE       0.042033
     50 H9          87.1120   159.3370    96.8470 hc         1 8UE       0.042033
     51 H10         88.5380   158.5780    97.5640 hc         1 8UE       0.042033
     52 H11         87.6130   161.2910    95.6490 ha         1 8UE       0.178000
     53 H12         89.3590   162.9110    94.9530 hc         1 8UE       0.060700
     54 H13         86.9120   167.3760    99.5190 ha         1 8UE       0.146000
     55 H14         84.7700   168.4640    95.9600 ha         1 8UE       0.129000
     56 H15         85.7310   166.6030    94.7830 ha         1 8UE       0.106000
     57 H16         86.9210   165.4010    94.0110 hn         1 8UE       0.466000
     58 H17         87.9390   162.7280    93.6880 h1         1 8UE       0.060700
     59 H18         86.9010   163.6870    92.6940 h1         1 8UE       0.060700
     60 H19         84.9680   164.1000    95.4290 ha         1 8UE       0.116000
     61 H20         83.1270   162.6880    96.1770 ha         1 8UE       0.118000
     62 H21         86.4870   160.8600    93.0760 ha         1 8UE       0.116000
     63 H22         84.6130   159.4570    93.8010 ha         1 8UE       0.118000
     64 H23         81.7720   160.6670    95.8610 hc         1 8UE       0.068700
     65 H24         82.3310   159.3620    94.8190 hc         1 8UE       0.068700
     66 H25         82.2330   160.5780    98.0170 hn         1 8UE       0.314500
     67 H26         84.2750   158.7250    99.0250 h1         1 8UE       0.063700
     68 H27         83.5970   160.0920    99.8730 h1         1 8UE       0.063700
     69 H28         83.4550   158.5120   101.7730 ha         1 8UE       0.114000
     70 H29         81.0730   157.9710    98.2640 ha         1 8UE       0.118000
     71 H30         79.5960   156.4430    99.5020 ha         1 8UE       0.131000
     72 H31         80.1400   155.6410   102.8920 ho         1 8UE       0.481000
     73 H32         82.9460   156.9650   105.0050 h1         1 8UE       0.042033
     74 H33         83.9680   157.0810   103.5600 h1         1 8UE       0.042033
     75 H34         82.9730   158.4670   104.0630 h1         1 8UE       0.042033
@<TRIPOS>BOND
     1     1     2 1   
     2     1    10 1   
     3     1    42 1   
     4     1    43 1   
     5     2     3 1   
     6     2     4 1   
     7     2    44 1   
     8     3     8 1   
     9     3    45 1   
    10     3    46 1   
    11     4     5 1   
    12     4    47 1   
    13     4    48 1   
    14     5     6 1   
    15     5     7 2   
    16     6    49 1   
    17     6    50 1   
    18     6    51 1   
    19     7     8 1   
    20     7    52 1   
    21     8     9 1   
    22     8    53 1   
    23     9    10 ar  
    24     9    19 ar  
    25    10    11 ar  
    26    11    12 ar  
    27    12    13 ar  
    28    12    18 ar  
    29    13    14 ar  
    30    13    54 1   
    31    14    15 1   
    32    14    16 ar  
    33    16    17 ar  
    34    16    55 1   
    35    17    18 ar  
    36    17    56 1   
    37    18    19 ar  
    38    19    20 1   
    39    20    21 1   
    40    20    57 1   
    41    21    22 1   
    42    21    58 1   
    43    21    59 1   
    44    22    23 ar  
    45    22    25 ar  
    46    23    24 ar  
    47    23    60 1   
    48    24    27 ar  
    49    24    61 1   
    50    25    26 ar  
    51    25    62 1   
    52    26    27 ar  
    53    26    63 1   
    54    27    28 1   
    55    28    29 1   
    56    28    64 1   
    57    28    65 1   
    58    29    30 2   
    59    29    31 1   
    60    31    32 1   
    61    31    66 1   
    62    32    33 1   
    63    32    67 1   
    64    32    68 1   
    65    33    34 ar  
    66    33    35 ar  
    67    34    39 ar  
    68    34    69 1   
    69    35    36 ar  
    70    35    70 1   
    71    36    37 ar  
    72    36    71 1   
    73    37    38 1   
    74    37    39 ar  
    75    38    72 1   
    76    39    40 1   
    77    40    41 1   
    78    41    73 1   
    79    41    74 1   
    80    41    75 1   
@<TRIPOS>SUBSTRUCTURE
     1 8UE         1 TEMP              0 ****  ****    0 ROOT
