@<TRIPOS>MOLECULE
8UF
   61    65     1     0     0
SMALL
abcg2


@<TRIPOS>ATOM
      1 C2          80.2670    16.9830    96.8990 c2         1 8UF       0.374100
      2 C3          80.6560    15.6770    97.0640 ce         1 8UF      -0.214900
      3 C4          80.2650    14.5380    96.1000 c5         1 8UF       0.185800
      4 C5          79.9930    15.2050    94.7860 cc         1 8UF      -0.213300
      5 C6          79.6980    16.5710    94.7050 cc         1 8UF       0.470300
      6 N7          80.3760    17.9730    97.8060 nv         1 8UF      -0.961000
      7 C8          81.3740    15.3730    98.2300 cg         1 8UF       0.314700
      8 C10         79.9620    14.7930    93.4560 cd         1 8UF      -0.077300
      9 C13         80.1920    13.4810    92.7900 c3         1 8UF      -0.040800
     10 C16         81.3870    13.5090    96.0700 ca         1 8UF      -0.040300
     11 C17         81.0860    12.4460    96.9210 ca         1 8UF      -0.171300
     12 C18         82.0390    11.4610    97.0390 ca         1 8UF       0.207000
     13 C20         82.5830    13.6020    95.3910 ca         1 8UF      -0.157000
     14 O54         89.5560    10.9830    92.4020 o          1 8UF      -0.741000
     15 C52         89.7270    12.1010    92.9550 c          1 8UF       0.705000
     16 O53         90.7570    12.4560    93.5890 o          1 8UF      -0.741000
     17 C51         88.5830    13.1240    92.8270 c3         1 8UF      -0.195400
     18 C38         87.2150    12.5840    93.2430 c6         1 8UF      -0.041700
     19 C37         87.1810    12.1810    94.7170 c6         1 8UF      -0.077900
     20 C36         85.8050    11.6960    95.1570 c6         1 8UF       0.199300
     21 C39         86.1010    13.5960    92.9840 c6         1 8UF      -0.077900
     22 C40         84.7480    13.0770    93.4500 c6         1 8UF       0.199300
     23 N35         84.7780    12.6930    94.8680 nh         1 8UF      -0.785400
     24 C19         83.5500    12.5860    95.5260 ca         1 8UF       0.337000
     25 C41         83.2470    11.4940    96.3600 ca         1 8UF      -0.219000
     26 F29         81.7890    10.3860    97.8410 f          1 8UF      -0.195000
     27 C44         79.7500    12.6240    97.5810 c5         1 8UF      -0.006100
     28 C14         79.0440    13.6750    96.6820 c5         1 8UF      -0.039000
     29 C30         78.0270    14.5160    97.4450 c3         1 8UF      -0.078600
     30 N9          81.9740    15.1290    99.1920 n1         1 8UF      -0.498000
     31 N11         79.6470    15.8960    92.7360 na         1 8UF      -0.027200
     32 N12         79.4820    17.0160    93.4850 nd         1 8UF      -0.517800
     33 O1          79.6670    17.4310    95.7670 os         1 8UF      -0.342400
     34 H1          80.4010    18.9220    97.4640 hn         1 8UF       0.497000
     35 H2          80.8660    17.7930    98.6670 hn         1 8UF       0.497000
     36 H3          80.6530    13.6290    91.8120 hc         1 8UF       0.061033
     37 H4          80.8470    12.8560    93.3920 hc         1 8UF       0.061033
     38 H5          79.2530    12.9450    92.6430 hc         1 8UF       0.061033
     39 H6          77.5410    12.3010    95.9830 hc         1 8UF       0.033867
     40 H7          77.8640    13.6150    94.8470 hc         1 8UF       0.033867
     41 H8          79.0090    12.2760    95.0080 hc         1 8UF       0.033867
     42 H9          82.7790    14.4690    94.7750 ha         1 8UF       0.126000
     43 H11         88.8250    14.0110    93.4180 hc         1 8UF       0.022200
     44 H12         88.5350    13.4350    91.7770 hc         1 8UF       0.022200
     45 H13         87.0100    11.6910    92.6430 hc         1 8UF       0.058700
     46 H14         87.9080    11.3890    94.9140 hc         1 8UF       0.050950
     47 H15         87.4660    13.0430    95.3300 hc         1 8UF       0.050950
     48 H16         85.5710    10.7400    94.6600 h1         1 8UF       0.028200
     49 H17         85.8180    11.5110    96.2300 h1         1 8UF       0.028200
     50 H18         86.3260    14.5300    93.5110 hc         1 8UF       0.050950
     51 H19         86.0410    13.8300    91.9180 hc         1 8UF       0.050950
     52 H20         83.9890    13.8370    93.2970 h1         1 8UF       0.028200
     53 H21         84.4610    12.2020    92.8440 h1         1 8UF       0.028200
     54 H22         83.9240    10.6630    96.4800 ha         1 8UF       0.136000
     55 H23         79.8700    12.9970    98.6020 hc         1 8UF       0.054700
     56 H24         79.1710    11.7010    97.6440 hc         1 8UF       0.054700
     57 H25         78.4680    15.0050    98.3130 hc         1 8UF       0.033867
     58 H26         77.5970    15.2860    96.7990 hc         1 8UF       0.033867
     59 H27         77.2100    13.8810    97.7940 hc         1 8UF       0.033867
     60 H28         79.5430    15.9520    91.7350 hn         1 8UF       0.375000
     61 C15         78.3260    12.9260    95.5550 c3         1 8UF      -0.078600
@<TRIPOS>BOND
     1     1     2 2   
     2     1     6 1   
     3     1    33 1   
     4     2     3 1   
     5     2     7 1   
     6     3     4 1   
     7     3    10 1   
     8     3    28 1   
     9     4     5 1   
    10     4     8 2   
    11     5    32 2   
    12     5    33 1   
    13     6    34 1   
    14     6    35 1   
    15     7    30 3   
    16     8     9 1   
    17     8    31 1   
    18     9    36 1   
    19     9    37 1   
    20     9    38 1   
    21    10    11 ar  
    22    10    13 ar  
    23    11    12 ar  
    24    11    27 1   
    25    12    25 ar  
    26    12    26 1   
    27    13    24 ar  
    28    13    42 1   
    29    14    15 1   
    30    15    16 1   
    31    15    17 1   
    32    17    18 1   
    33    17    43 1   
    34    17    44 1   
    35    18    19 1   
    36    18    21 1   
    37    18    45 1   
    38    19    20 1   
    39    19    46 1   
    40    19    47 1   
    41    20    23 1   
    42    20    48 1   
    43    20    49 1   
    44    21    22 1   
    45    21    50 1   
    46    21    51 1   
    47    22    23 1   
    48    22    52 1   
    49    22    53 1   
    50    23    24 1   
    51    24    25 ar  
    52    25    54 1   
    53    27    28 1   
    54    27    55 1   
    55    27    56 1   
    56    28    29 1   
    57    28    61 1   
    58    29    57 1   
    59    29    58 1   
    60    29    59 1   
    61    31    32 1   
    62    31    60 1   
    63    39    61 1   
    64    40    61 1   
    65    41    61 1   
@<TRIPOS>SUBSTRUCTURE
     1 8UF         1 TEMP              0 ****  ****    0 ROOT
