@<TRIPOS>MOLECULE
8UF
   61    65     1     0     0
SMALL
No Charge or Current Charge


@<TRIPOS>ATOM
      1 C2          80.4250    16.9820    96.9330 c2         1 8UF       0.374100
      2 C3          80.6300    15.6860    97.2750 ce         1 8UF      -0.214900
      3 C4          80.3070    14.5640    96.2260 c5         1 8UF       0.185800
      4 C5          80.1480    15.1280    94.8400 cc         1 8UF      -0.213300
      5 C6          79.9800    16.5470    94.6470 cc         1 8UF       0.470300
      6 N7          80.6400    18.0900    97.7230 nv         1 8UF      -0.961000
      7 C8          81.1860    15.4250    98.6030 cg         1 8UF       0.314700
      8 C10         80.1410    14.7180    93.4680 cd         1 8UF      -0.077300
      9 C13         80.3260    13.3370    92.8350 c3         1 8UF      -0.040800
     10 C16         81.3550    13.4850    96.1330 ca         1 8UF      -0.040300
     11 C17         81.0090    12.3780    96.8800 ca         1 8UF      -0.171300
     12 C18         81.8630    11.2690    96.9380 ca         1 8UF       0.207000
     13 C20         82.5780    13.5340    95.4450 ca         1 8UF      -0.157000
     14 O54         90.0530    11.6990    92.0950 o          1 8UF      -0.741000
     15 C52         89.7560    12.5060    92.9630 c          1 8UF       0.705000
     16 O53         90.3940    12.6510    93.9950 o          1 8UF      -0.741000
     17 C51         88.4900    13.3610    92.7560 c3         1 8UF      -0.195400
     18 C38         87.1900    12.6370    93.2330 c6         1 8UF      -0.041700
     19 C37         87.1610    12.3830    94.7660 c6         1 8UF      -0.077900
     20 C36         85.8460    11.6940    95.2080 c6         1 8UF       0.199300
     21 C39         85.9200    13.4320    92.8260 c6         1 8UF      -0.077900
     22 C40         84.6280    12.7190    93.2930 c6         1 8UF       0.199300
     23 N35         84.6550    12.4630    94.7580 nh         1 8UF      -0.785400
     24 C19         83.4410    12.4230    95.4800 ca         1 8UF       0.337000
     25 C41         83.0750    11.2880    96.2320 ca         1 8UF      -0.219000
     26 F29         81.5240    10.1840    97.6680 f          1 8UF      -0.195000
     27 C44         79.6870    12.5510    97.5930 c5         1 8UF      -0.006100
     28 C14         79.0260    13.7260    96.7550 c5         1 8UF      -0.039000
     29 C30         78.0000    14.5490    97.5930 c3         1 8UF      -0.078600
     30 N9          81.6500    15.2580    99.6610 n1         1 8UF      -0.498000
     31 N11         79.9240    15.9020    92.6060 na         1 8UF      -0.027200
     32 N12         79.8210    17.0750    93.3980 nd         1 8UF      -0.517800
     33 O1          80.0000    17.4060    95.7090 os         1 8UF      -0.342400
     34 H1          80.6930    18.9720    97.2210 hn         1 8UF       0.497000
     35 H2          81.3060    17.9880    98.4840 hn         1 8UF       0.497000
     36 H3          81.0370    13.3780    92.0010 hc         1 8UF       0.061033
     37 H4          80.7100    12.6060    93.5550 hc         1 8UF       0.061033
     38 H5          79.3760    12.9530    92.4460 hc         1 8UF       0.061033
     39 H6          77.3660    12.4900    95.9820 hc         1 8UF       0.033867
     40 H7          77.7580    13.8590    94.9410 hc         1 8UF       0.033867
     41 H8          78.8060    12.4270    94.9790 hc         1 8UF       0.033867
     42 H9          82.8560    14.4220    94.8870 ha         1 8UF       0.126000
     43 H11         88.5680    14.2930    93.3300 hc         1 8UF       0.022200
     44 H12         88.3540    13.5330    91.6810 hc         1 8UF       0.022200
     45 H13         87.1650    11.6650    92.7190 hc         1 8UF       0.058700
     46 H14         88.0080    11.7540    95.0680 hc         1 8UF       0.050950
     47 H15         87.2680    13.3340    95.3050 hc         1 8UF       0.050950
     48 H16         85.8110    10.6750    94.7940 h1         1 8UF       0.028200
     49 H17         85.8510    11.6070    96.3050 h1         1 8UF       0.028200
     50 H18         85.9540    14.4400    93.2610 hc         1 8UF       0.050950
     51 H19         85.8870    13.5630    91.7360 hc         1 8UF       0.050950
     52 H20         83.7640    13.3420    93.0200 h1         1 8UF       0.028200
     53 H21         84.5240    11.7670    92.7530 h1         1 8UF       0.028200
     54 H22         83.7200    10.4170    96.2680 ha         1 8UF       0.136000
     55 H23         79.8410    12.8290    98.6420 hc         1 8UF       0.054700
     56 H24         79.0800    11.6390    97.5950 hc         1 8UF       0.054700
     57 H25         78.4230    14.9110    98.5370 hc         1 8UF       0.033867
     58 H26         77.6390    15.4200    97.0320 hc         1 8UF       0.033867
     59 H27         77.1260    13.9430    97.8610 hc         1 8UF       0.033867
     60 H28         79.8600    15.9220    91.5860 hn         1 8UF       0.375000
     61 C15         78.1960    13.0950    95.5950 c3         1 8UF      -0.078600
@<TRIPOS>BOND
     1     1     2 2   
     2     1     6 1   
     3     1    33 1   
     4     2     3 1   
     5     2     7 1   
     6     3     4 1   
     7     3    10 1   
     8     3    28 1   
     9     4     5 1   
    10     4     8 2   
    11     5    32 2   
    12     5    33 1   
    13     6    34 1   
    14     6    35 1   
    15     7    30 3   
    16     8     9 1   
    17     8    31 1   
    18     9    36 1   
    19     9    37 1   
    20     9    38 1   
    21    10    11 ar  
    22    10    13 ar  
    23    11    12 ar  
    24    11    27 1   
    25    12    25 ar  
    26    12    26 1   
    27    13    24 ar  
    28    13    42 1   
    29    14    15 1   
    30    15    16 1   
    31    15    17 1   
    32    17    18 1   
    33    17    43 1   
    34    17    44 1   
    35    18    19 1   
    36    18    21 1   
    37    18    45 1   
    38    19    20 1   
    39    19    46 1   
    40    19    47 1   
    41    20    23 1   
    42    20    48 1   
    43    20    49 1   
    44    21    22 1   
    45    21    50 1   
    46    21    51 1   
    47    22    23 1   
    48    22    52 1   
    49    22    53 1   
    50    23    24 1   
    51    24    25 ar  
    52    25    54 1   
    53    27    28 1   
    54    27    55 1   
    55    27    56 1   
    56    28    29 1   
    57    28    61 1   
    58    29    57 1   
    59    29    58 1   
    60    29    59 1   
    61    31    32 1   
    62    31    60 1   
    63    39    61 1   
    64    40    61 1   
    65    41    61 1   
@<TRIPOS>SUBSTRUCTURE
     1 8UF         1 TEMP              0 ****  ****    0 ROOT
