@<TRIPOS>MOLECULE
8UI
   67    69     1     0     0
SMALL
No Charge or Current Charge


@<TRIPOS>ATOM
      1 C1          -8.4250   -17.7350   -20.4580 cc         1 8UI      -0.185200
      2 C10         -5.9960   -12.2740   -17.6140 c3         1 8UI      -0.087100
      3 C11         -6.1990   -14.7790   -17.6960 c3         1 8UI      -0.087100
      4 C12         -9.1160   -16.8400   -18.1400 c          1 8UI       0.633300
      5 C13         -7.2000   -13.4850   -15.7620 c3         1 8UI      -0.087100
      6 C14         -9.3960   -14.3300   -17.9100 c3         1 8UI       0.039700
      7 C15        -10.7730   -13.7530   -18.3520 c          1 8UI       0.591100
      8 C17        -12.6140   -12.1630   -17.6770 c3         1 8UI       0.105700
      9 C19        -13.2920   -11.8780   -16.3100 c3         1 8UI      -0.070400
     10 C2          -8.1600   -19.0350   -21.0080 ca         1 8UI      -0.138800
     11 C20        -13.4880   -13.1230   -15.3970 c5         1 8UI      -0.156700
     12 C21        -14.3410   -14.2670   -16.0150 c5         1 8UI      -0.093400
     13 C22        -14.7790   -15.0440   -14.7440 c5         1 8UI       0.101000
     14 C24        -14.2300   -12.8210   -14.0880 c          1 8UI       0.565000
     15 C3          -8.3260   -19.9360   -19.9920 ca         1 8UI      -0.025200
     16 C30         -8.7690   -17.9160   -19.1150 cd         1 8UI      -0.142300
     17 C34         -8.2630   -13.2730   -18.0920 c3         1 8UI      -0.079400
     18 C4          -8.0910   -21.3060   -20.1820 ca         1 8UI      -0.136000
     19 C5          -7.6680   -21.7420   -21.4540 ca         1 8UI      -0.072000
     20 C6          -7.4970   -20.8110   -22.5050 ca         1 8UI      -0.157000
     21 C7          -7.7570   -19.4430   -22.2950 ca         1 8UI       0.157100
     22 C8         -12.4350   -10.8920   -18.5520 c3         1 8UI       0.149600
     23 C9          -6.9300   -13.4710   -17.2920 c3         1 8UI      -0.046000
     24 N1          -8.7140   -19.3040   -18.8230 na         1 8UI      -0.184700
     25 N13         -9.1050   -15.5680   -18.6680 ns         1 8UI      -0.473900
     26 N16        -11.3250   -12.8400   -17.4770 ns         1 8UI      -0.500900
     27 N23        -14.9660   -13.9400   -13.8070 ns         1 8UI      -0.516900
     28 O2          -7.5930   -18.5580   -23.3340 os         1 8UI      -0.361100
     29 O26        -14.3700   -11.7620   -13.4980 o          1 8UI      -0.562000
     30 O33         -9.3900   -17.0640   -16.9690 o          1 8UI      -0.627100
     31 O9         -13.7030   -10.3010   -18.8770 oh         1 8UI      -0.655000
     32 H1          -8.3360   -16.7860   -20.9780 ha         1 8UI       0.205000
     33 H2          -6.4610   -11.3220   -17.3300 hc         1 8UI       0.036367
     34 H3          -5.0450   -12.3570   -17.0720 hc         1 8UI       0.036367
     35 H4          -5.7680   -12.2320   -18.6870 hc         1 8UI       0.036367
     36 H5          -6.7380   -15.6650   -17.3450 hc         1 8UI       0.036367
     37 H6          -6.0890   -14.8490   -18.7850 hc         1 8UI       0.036367
     38 H7          -5.1960   -14.8170   -17.2540 hc         1 8UI       0.036367
     39 H8          -7.7800   -14.3650   -15.4630 hc         1 8UI       0.036367
     40 H9          -6.2580   -13.5080   -15.2010 hc         1 8UI       0.036367
     41 H10         -7.7530   -12.5900   -15.4530 hc         1 8UI       0.036367
     42 H11         -9.5010   -14.5690   -16.8450 h1         1 8UI       0.076700
     43 H12         -8.4100   -17.1560   -24.6500 h1         1 8UI       0.035700
     44 H13         -9.5200   -18.4460   -24.1390 h1         1 8UI       0.035700
     45 H14         -9.1080   -17.1300   -23.0200 h1         1 8UI       0.035700
     46 H15        -13.2700   -12.8470   -18.2330 h1         1 8UI       0.092700
     47 H16        -12.6980   -11.1260   -15.7760 hc         1 8UI       0.064700
     48 H17        -14.2690   -11.4140   -16.4940 hc         1 8UI       0.064700
     49 H18        -12.5130   -13.5370   -15.1150 hc         1 8UI       0.095700
     50 H19        -13.7810   -14.8930   -16.7200 hc         1 8UI       0.064700
     51 H20        -15.2150   -13.8710   -16.5460 hc         1 8UI       0.064700
     52 H21        -15.6980   -15.6230   -14.9110 h1         1 8UI       0.041700
     53 H22        -13.9930   -15.7300   -14.4000 h1         1 8UI       0.041700
     54 H23         -8.6680   -12.2930   -17.8080 hc         1 8UI       0.056700
     55 H24         -8.0350   -13.1890   -19.1620 hc         1 8UI       0.056700
     56 H25         -8.2220   -22.0140   -19.3660 ha         1 8UI       0.120000
     57 H26         -7.4720   -22.7990   -21.6280 ha         1 8UI       0.115000
     58 H27         -7.1730   -21.1530   -23.4850 ha         1 8UI       0.125000
     59 H28        -11.8060   -10.1710   -18.0140 h1         1 8UI       0.021700
     60 H29        -11.9080   -11.1680   -19.4750 h1         1 8UI       0.021700
     61 H30         -8.9070   -19.7400   -17.9270 hn         1 8UI       0.371000
     62 H31         -8.9160   -15.4920   -19.6570 hn         1 8UI       0.332500
     63 H32        -10.7920   -12.6220   -16.6430 hn         1 8UI       0.314500
     64 H33        -15.6020   -13.9240   -13.0180 hn         1 8UI       0.323500
     65 H34        -13.5180    -9.5120   -19.4340 ho         1 8UI       0.448000
     66 O38        -11.3410   -14.0760   -19.3880 o          1 8UI      -0.602100
     67 C16         -8.7110   -17.7850   -23.8030 c3         1 8UI       0.151900
@<TRIPOS>BOND
     1     1    10 1   
     2     1    16 2   
     3     1    32 1   
     4     2    23 1   
     5     2    33 1   
     6     2    34 1   
     7     2    35 1   
     8     3    23 1   
     9     3    36 1   
    10     3    37 1   
    11     3    38 1   
    12     4    16 1   
    13     4    25 1   
    14     4    30 2   
    15     5    23 1   
    16     5    39 1   
    17     5    40 1   
    18     5    41 1   
    19     6     7 1   
    20     6    17 1   
    21     6    25 1   
    22     6    42 1   
    23     7    26 1   
    24     7    66 2   
    25     8     9 1   
    26     8    22 1   
    27     8    26 1   
    28     8    46 1   
    29     9    11 1   
    30     9    47 1   
    31     9    48 1   
    32    10    15 ar  
    33    10    21 ar  
    34    11    12 1   
    35    11    14 1   
    36    11    49 1   
    37    12    13 1   
    38    12    50 1   
    39    12    51 1   
    40    13    27 1   
    41    13    52 1   
    42    13    53 1   
    43    14    27 1   
    44    14    29 2   
    45    15    18 ar  
    46    15    24 1   
    47    16    24 1   
    48    17    23 1   
    49    17    54 1   
    50    17    55 1   
    51    18    19 ar  
    52    18    56 1   
    53    19    20 ar  
    54    19    57 1   
    55    20    21 ar  
    56    20    58 1   
    57    21    28 1   
    58    22    31 1   
    59    22    59 1   
    60    22    60 1   
    61    24    61 1   
    62    25    62 1   
    63    26    63 1   
    64    27    64 1   
    65    28    67 1   
    66    31    65 1   
    67    43    67 1   
    68    44    67 1   
    69    45    67 1   
@<TRIPOS>SUBSTRUCTURE
     1 8UI         1 TEMP              0 ****  ****    0 ROOT
