@<TRIPOS>MOLECULE
8UI
   67    69     1     0     0
SMALL
bcc


@<TRIPOS>ATOM
      1 C1          -8.4140   -17.6850   -19.8620 cc         1 8UI      -0.135200
      2 C10         -6.0350   -11.5270   -19.1190 c3         1 8UI      -0.087100
      3 C11         -5.9600   -13.9260   -18.4640 c3         1 8UI      -0.087100
      4 C12         -9.4490   -16.1100   -18.0720 c          1 8UI       0.700300
      5 C13         -6.5330   -12.1840   -16.7710 c3         1 8UI      -0.087100
      6 C14         -9.0320   -13.7260   -17.9380 c3         1 8UI       0.039700
      7 C15        -10.4980   -13.2900   -18.0230 c          1 8UI       0.658100
      8 C17        -12.2890   -12.1150   -16.7800 c3         1 8UI       0.105700
      9 C19        -13.0990   -12.9050   -15.7530 c3         1 8UI      -0.070400
     10 C2          -8.6300   -19.0630   -20.1400 ca         1 8UI      -0.138800
     11 C20        -13.3060   -14.3610   -16.1370 c5         1 8UI      -0.156700
     12 C21        -14.1370   -14.6040   -17.3960 c5         1 8UI      -0.093400
     13 C22        -14.8130   -15.9520   -17.1400 c5         1 8UI       0.101000
     14 C24        -14.0550   -15.1430   -15.0680 c          1 8UI       0.707500
     15 C3          -9.5930   -19.5270   -19.2170 ca         1 8UI      -0.025200
     16 C30         -9.2360   -17.3650   -18.8120 cd         1 8UI      -0.142300
     17 C34         -8.1700   -12.6600   -18.6260 c3         1 8UI      -0.079400
     18 C4         -10.0360   -20.8520   -19.1960 ca         1 8UI      -0.154000
     19 C5          -9.4830   -21.7090   -20.1220 ca         1 8UI      -0.090000
     20 C6          -8.5230   -21.2760   -21.0560 ca         1 8UI      -0.175000
     21 C7          -8.0910   -19.9680   -21.0710 ca         1 8UI       0.157100
     22 C8         -12.1580   -10.6410   -16.4040 c3         1 8UI       0.126400
     23 C9          -6.6820   -12.5970   -18.2360 c3         1 8UI      -0.046000
     24 N1          -9.9380   -18.4750   -18.4300 na         1 8UI      -0.134400
     25 N13         -8.8710   -15.0100   -18.5750 ns         1 8UI      -0.540900
     26 N16        -10.9570   -12.6660   -16.9270 ns         1 8UI      -0.567900
     27 N23        -14.8910   -15.9880   -15.6950 ns         1 8UI      -0.583900
     28 O2          -7.1380   -19.5630   -21.9530 os         1 8UI      -0.337900
     29 O26        -13.9130   -15.0360   -13.8610 o          1 8UI      -0.637500
     30 O33        -10.1170   -16.0990   -17.0430 o          1 8UI      -0.627100
     31 O9         -13.4440   -10.0750   -16.3400 oh         1 8UI      -0.592800
     32 H1          -7.7240   -17.0260   -20.3660 ha         1 8UI       0.155000
     33 H2          -6.5220   -10.5580   -18.9910 hc         1 8UI       0.036367
     34 H3          -4.9800   -11.4030   -18.8680 hc         1 8UI       0.036367
     35 H4          -6.0970   -11.7950   -20.1760 hc         1 8UI       0.036367
     36 H5          -6.3300   -14.7140   -17.8080 hc         1 8UI       0.036367
     37 H6          -6.0630   -14.2700   -19.4960 hc         1 8UI       0.036367
     38 H7          -4.8930   -13.8090   -18.2630 hc         1 8UI       0.036367
     39 H8          -6.9590   -12.9210   -16.0880 hc         1 8UI       0.036367
     40 H9          -5.4790   -12.0740   -16.5090 hc         1 8UI       0.036367
     41 H10         -7.0230   -11.2270   -16.5780 hc         1 8UI       0.036367
     42 H11         -8.7390   -13.8160   -16.8880 h1         1 8UI       0.076700
     43 H12         -6.7650   -18.5370   -23.6620 h1         1 8UI       0.035700
     44 H13         -8.3260   -19.3800   -23.6560 h1         1 8UI       0.035700
     45 H14         -8.1180   -17.8820   -22.7250 h1         1 8UI       0.035700
     46 H15        -12.7730   -12.1750   -17.7570 h1         1 8UI       0.092700
     47 H16        -12.5920   -12.8500   -14.7850 hc         1 8UI       0.064700
     48 H17        -14.0720   -12.4250   -15.6270 hc         1 8UI       0.064700
     49 H18        -12.3310   -14.8530   -16.2450 hc         1 8UI       0.095700
     50 H19        -13.5430   -14.6090   -18.3080 hc         1 8UI       0.064700
     51 H20        -14.8950   -13.8220   -17.4970 hc         1 8UI       0.064700
     52 H21        -15.8030   -16.0180   -17.5890 h1         1 8UI       0.041700
     53 H22        -14.2140   -16.7830   -17.5240 h1         1 8UI       0.041700
     54 H23         -8.6050   -11.6810   -18.4000 hc         1 8UI       0.056700
     55 H24         -8.2640   -12.7840   -19.7100 hc         1 8UI       0.056700
     56 H25        -10.7740   -21.1910   -18.4820 ha         1 8UI       0.138000
     57 H26         -9.7960   -22.7450   -20.1390 ha         1 8UI       0.133000
     58 H27         -8.1130   -21.9810   -21.7690 ha         1 8UI       0.143000
     59 H28        -11.6300   -10.5650   -15.4420 h1         1 8UI       0.021700
     60 H29        -11.5310   -10.1460   -17.1560 h1         1 8UI       0.021700
     61 H30        -10.6020   -18.4950   -17.6720 hn         1 8UI       0.320700
     62 H31         -8.4320   -15.0420   -19.4820 hn         1 8UI       0.332500
     63 H32        -10.3600   -12.6340   -16.1140 hn         1 8UI       0.314500
     64 H33        -15.4180   -16.6870   -15.1950 hn         1 8UI       0.323500
     65 H34        -13.3590    -9.1650   -16.0440 ho         1 8UI       0.409000
     66 O38        -11.1440   -13.4630   -19.0440 o          1 8UI      -0.602100
     67 C16         -7.6240   -18.8020   -23.0490 c3         1 8UI       0.128700
@<TRIPOS>BOND
     1     1    10 1   
     2     1    16 2   
     3     1    32 1   
     4     2    23 1   
     5     2    33 1   
     6     2    34 1   
     7     2    35 1   
     8     3    23 1   
     9     3    36 1   
    10     3    37 1   
    11     3    38 1   
    12     4    16 1   
    13     4    25 1   
    14     4    30 2   
    15     5    23 1   
    16     5    39 1   
    17     5    40 1   
    18     5    41 1   
    19     6     7 1   
    20     6    17 1   
    21     6    25 1   
    22     6    42 1   
    23     7    26 1   
    24     7    66 2   
    25     8     9 1   
    26     8    22 1   
    27     8    26 1   
    28     8    46 1   
    29     9    11 1   
    30     9    47 1   
    31     9    48 1   
    32    10    15 ar  
    33    10    21 ar  
    34    11    12 1   
    35    11    14 1   
    36    11    49 1   
    37    12    13 1   
    38    12    50 1   
    39    12    51 1   
    40    13    27 1   
    41    13    52 1   
    42    13    53 1   
    43    14    27 1   
    44    14    29 2   
    45    15    18 ar  
    46    15    24 1   
    47    16    24 1   
    48    17    23 1   
    49    17    54 1   
    50    17    55 1   
    51    18    19 ar  
    52    18    56 1   
    53    19    20 ar  
    54    19    57 1   
    55    20    21 ar  
    56    20    58 1   
    57    21    28 1   
    58    22    31 1   
    59    22    59 1   
    60    22    60 1   
    61    24    61 1   
    62    25    62 1   
    63    26    63 1   
    64    27    64 1   
    65    28    67 1   
    66    31    65 1   
    67    43    67 1   
    68    44    67 1   
    69    45    67 1   
@<TRIPOS>SUBSTRUCTURE
     1 8UI         1 TEMP              0 ****  ****    0 ROOT
