@<TRIPOS>MOLECULE
8UJ
   37    38     1     0     0
SMALL
No Charge or Current Charge


@<TRIPOS>ATOM
      1 N1           2.6990    -0.2430     0.3140 n7         1 8UJ      -0.886300
      2 C4          -0.1370    -1.2050    -0.4250 c5         1 8UJ      -0.160400
      3 C5          -1.6550    -1.1970    -0.2970 c          1 8UJ       0.560000
      4 C6          -0.8620     1.0920    -0.5300 c5         1 8UJ       0.103000
      5 C7          -3.3500     0.7460    -0.5400 c5         1 8UJ       0.122700
      6 C8          -3.7910     0.8880     0.9470 c5         1 8UJ      -0.088900
      7 C10         -5.3970    -0.5410    -0.0720 c5         1 8UJ      -0.078400
      8 S1           4.3140     0.0700     0.0590 s6         1 8UJ       1.201100
      9 C2           1.6970     0.6660    -0.2650 c3         1 8UJ       0.218800
     10 C3           0.2680     0.2090     0.0990 c5         1 8UJ      -0.081700
     11 N2          -1.9870     0.1380    -0.5510 n          1 8UJ      -0.416800
     12 C9          -5.3250     0.7280     0.8170 c5         1 8UJ      -0.078400
     13 C11         -4.4040    -0.1930    -1.2210 c5         1 8UJ      -0.088900
     14 O2           5.0420    -1.0300     0.6930 o          1 8UJ      -0.525500
     15 O3           4.4720     0.3320    -1.3730 o          1 8UJ      -0.525500
     16 H1           2.6500    -0.1780     1.3290 hn         1 8UJ       0.486000
     17 H2           0.3120    -2.0500     0.1060 hc         1 8UJ       0.087700
     18 H3           0.1100    -1.2580    -1.4910 hc         1 8UJ       0.087700
     19 H4          -1.0730     1.9840     0.0750 h1         1 8UJ       0.044200
     20 H5          -0.6120     1.4090    -1.5510 h1         1 8UJ       0.044200
     21 H6          -3.3470     1.7250    -1.0390 h1         1 8UJ       0.042700
     22 H7          -3.3700     0.1070     1.5920 hc         1 8UJ       0.051200
     23 H8          -3.5010     1.8540     1.3760 hc         1 8UJ       0.051200
     24 H9          -5.0790    -1.4330     0.4800 hc         1 8UJ       0.047450
     25 H10         -6.4090    -0.7350    -0.4430 hc         1 8UJ       0.047450
     26 H11          4.2970     1.3920     2.0210 h1         1 8UJ       0.101033
     27 H12          5.6350     1.8250     0.8930 h1         1 8UJ       0.101033
     28 H13          3.9550     2.3600     0.5290 h1         1 8UJ       0.101033
     29 H14          1.8360     1.6940     0.0970 h1         1 8UJ       0.052200
     30 H15          1.7860     0.6870    -1.3610 h1         1 8UJ       0.052200
     31 H16          0.1860     0.2380     1.1930 hc         1 8UJ       0.064700
     32 H17         -5.8140     0.5870     1.7880 hc         1 8UJ       0.047450
     33 H18         -5.7900     1.5960     0.3330 hc         1 8UJ       0.047450
     34 H19         -4.9220     0.3520    -2.0180 hc         1 8UJ       0.051200
     35 H20         -3.9800    -1.0850    -1.6950 hc         1 8UJ       0.051200
     36 O1          -2.3950    -2.0540     0.1630 o          1 8UJ      -0.546000
     37 C1           4.5720     1.5750     0.9770 c3         1 8UJ      -0.386100
@<TRIPOS>BOND
     1     1     8 1   
     2     1     9 1   
     3     1    16 1   
     4     2     3 1   
     5     2    10 1   
     6     2    17 1   
     7     2    18 1   
     8     3    11 1   
     9     3    36 2   
    10     4    10 1   
    11     4    11 1   
    12     4    19 1   
    13     4    20 1   
    14     5     6 1   
    15     5    11 1   
    16     5    13 1   
    17     5    21 1   
    18     6    12 1   
    19     6    22 1   
    20     6    23 1   
    21     7    12 1   
    22     7    13 1   
    23     7    24 1   
    24     7    25 1   
    25     8    14 2   
    26     8    15 2   
    27     8    37 1   
    28     9    10 1   
    29     9    29 1   
    30     9    30 1   
    31    10    31 1   
    32    12    32 1   
    33    12    33 1   
    34    13    34 1   
    35    13    35 1   
    36    26    37 1   
    37    27    37 1   
    38    28    37 1   
@<TRIPOS>SUBSTRUCTURE
     1 8UJ         1 TEMP              0 ****  ****    0 ROOT
