@<TRIPOS>MOLECULE
8UJ
   37    38     1     0     0
SMALL
bcc


@<TRIPOS>ATOM
      1 N1           2.6920     0.1100     0.7690 n7         1 8UJ      -0.831100
      2 C4          -0.0690    -0.9680     0.2770 c5         1 8UJ      -0.160400
      3 C5          -1.5780    -0.9500     0.1580 c          1 8UJ       0.702500
      4 C6          -0.8810     1.2810     0.1490 c5         1 8UJ       0.103000
      5 C7          -3.3500     0.7660    -0.0840 c5         1 8UJ       0.122700
      6 C8          -4.3050     0.3790     1.0630 c5         1 8UJ      -0.088900
      7 C10         -5.2750    -0.5060    -0.9340 c5         1 8UJ      -0.078400
      8 S1           4.0560    -0.1960    -0.0900 s6         1 8UJ       1.231900
      9 C2           1.6310     0.9430     0.2170 c3         1 8UJ       0.218800
     10 C3           0.2810     0.4530     0.7040 c5         1 8UJ      -0.081700
     11 N2          -1.9800     0.3350     0.1230 n          1 8UJ      -0.483800
     12 C9          -5.6540     0.1760     0.3790 c5         1 8UJ      -0.078400
     13 C11         -4.0210     0.2460    -1.3840 c5         1 8UJ      -0.088900
     14 O2           4.8550    -1.1060     0.7170 o          1 8UJ      -0.596300
     15 O3           3.6450    -0.6020    -1.4270 o          1 8UJ      -0.596300
     16 H1           2.8810     0.2640     1.7540 hn         1 8UJ       0.430800
     17 H2           0.2690    -1.7380     0.9670 hc         1 8UJ       0.087700
     18 H3           0.3510    -1.2050    -0.7070 hc         1 8UJ       0.087700
     19 H4          -1.1200     2.1390     0.7790 h1         1 8UJ       0.044200
     20 H5          -0.6640     1.6570    -0.8580 h1         1 8UJ       0.044200
     21 H6          -3.3000     1.8540    -0.1360 h1         1 8UJ       0.042700
     22 H7          -3.9860    -0.5580     1.5200 hc         1 8UJ       0.051200
     23 H8          -4.3240     1.1350     1.8490 hc         1 8UJ       0.051200
     24 H9          -5.0340    -1.5540    -0.7450 hc         1 8UJ       0.047450
     25 H10         -6.0730    -0.4780    -1.6770 hc         1 8UJ       0.047450
     26 H11          5.2000     1.6980     0.7580 h1         1 8UJ       0.101033
     27 H12          5.8540     1.1490    -0.8070 h1         1 8UJ       0.101033
     28 H13          4.3320     2.0690    -0.7560 h1         1 8UJ       0.101033
     29 H14          1.7760     1.9940     0.4860 h1         1 8UJ       0.052200
     30 H15          1.6620     0.8780    -0.8710 h1         1 8UJ       0.052200
     31 H16          0.2450     0.5160     1.7960 hc         1 8UJ       0.064700
     32 H17         -6.3490    -0.4090     0.9840 hc         1 8UJ       0.047450
     33 H18         -6.1290     1.1410     0.1770 hc         1 8UJ       0.047450
     34 H19         -4.3000     1.1000    -2.0040 hc         1 8UJ       0.051200
     35 H20         -3.3490    -0.3700    -1.9810 hc         1 8UJ       0.051200
     36 O1          -2.3050    -1.9290     0.0780 o          1 8UJ      -0.621500
     37 C1           4.9460     1.3370    -0.2350 c3         1 8UJ      -0.275300
@<TRIPOS>BOND
     1     1     8 1   
     2     1     9 1   
     3     1    16 1   
     4     2     3 1   
     5     2    10 1   
     6     2    17 1   
     7     2    18 1   
     8     3    11 1   
     9     3    36 2   
    10     4    10 1   
    11     4    11 1   
    12     4    19 1   
    13     4    20 1   
    14     5     6 1   
    15     5    11 1   
    16     5    13 1   
    17     5    21 1   
    18     6    12 1   
    19     6    22 1   
    20     6    23 1   
    21     7    12 1   
    22     7    13 1   
    23     7    24 1   
    24     7    25 1   
    25     8    14 2   
    26     8    15 2   
    27     8    37 1   
    28     9    10 1   
    29     9    29 1   
    30     9    30 1   
    31    10    31 1   
    32    12    32 1   
    33    12    33 1   
    34    13    34 1   
    35    13    35 1   
    36    26    37 1   
    37    27    37 1   
    38    28    37 1   
@<TRIPOS>SUBSTRUCTURE
     1 8UJ         1 TEMP              0 ****  ****    0 ROOT
