@<TRIPOS>MOLECULE
8UK
   77    81     1     0     0
SMALL
No Charge or Current Charge


@<TRIPOS>ATOM
      1 CAU         -4.5520    52.4330    52.3520 c6         1 8UK      -0.126700
      2 CBL         -3.3040    53.1360    52.9310 c6         1 8UK      -0.021500
      3 CAV         -2.2590    52.0580    53.2910 c6         1 8UK      -0.069400
      4 CAF         -3.6780    53.9580    54.1640 c2         1 8UK      -0.203200
      5 CBA         -3.4610    53.5470    55.4280 c2         1 8UK      -0.107400
      6 CAB         -3.8110    54.3790    56.6450 c3         1 8UK      -0.044900
      7 CAT         -2.8030    52.2000    55.7290 c6         1 8UK      -0.038200
      8 CBM         -2.7970    51.2530    54.4980 c6         1 8UK       0.001600
      9 CBI         -4.1940    50.6480    54.1840 ca         1 8UK      -0.216300
     10 CBF         -4.9820    51.1990    53.1510 ca         1 8UK       0.438300
     11 NAW         -6.1450    50.6620    52.7400 nb         1 8UK      -0.700000
     12 CBJ         -6.5930    49.5380    53.3250 ca         1 8UK       0.315000
     13 CAL         -7.7930    48.9740    52.8600 ca         1 8UK      -0.091000
     14 CBC         -8.2970    47.7940    53.4210 ca         1 8UK       0.130000
     15 Cl1         -9.8000    47.1070    52.8200 cl         1 8UK      -0.209000
     16 CAH         -7.5960    47.1530    54.4480 ca         1 8UK      -0.135000
     17 CAJ         -6.4000    47.7070    54.9290 ca         1 8UK      -0.070000
     18 CBK         -5.9000    48.9190    54.3920 ca         1 8UK      -0.132000
     19 CBH         -4.7130    49.5290    54.8700 ca         1 8UK       0.379000
     20 NAY         -4.0190    49.0580    55.9970 nu         1 8UK      -0.966200
     21 CAQ         -4.5530    48.8620    57.3700 c3         1 8UK       0.229800
     22 CAO         -5.8730    49.6140    57.7010 c3         1 8UK      -0.104400
     23 CAM         -5.8070    51.1600    57.6320 c3         1 8UK      -0.080400
     24 CAN         -7.0970    51.8910    58.0850 c3         1 8UK      -0.071400
     25 CAP         -8.4030    51.4930    57.3470 c3         1 8UK      -0.068400
     26 CAR         -8.3600    51.5580    55.7970 c3         1 8UK      -0.165400
     27 CBB         -8.1640    52.9690    55.2300 c          1 8UK       0.595100
     28 OAC         -7.0960    53.5610    55.2700 o          1 8UK      -0.584100
     29 NAX         -9.2730    53.4990    54.6160 ns         1 8UK      -0.515900
     30 CAS         -9.2840    54.7560    53.8710 c3         1 8UK       0.162300
     31 CBE         -8.8430    54.5450    52.4270 ca         1 8UK      -0.095300
     32 CAK         -7.6160    55.0670    51.9700 ca         1 8UK      -0.140000
     33 CAI         -9.6590    53.8150    51.5440 ca         1 8UK      -0.092000
     34 CAG         -9.2570    53.6020    50.2160 ca         1 8UK      -0.179000
     35 CBD         -8.0350    54.1200    49.7560 ca         1 8UK       0.113100
     36 OAD         -7.6680    53.9010    48.4550 oh         1 8UK      -0.515100
     37 CBG         -7.2040    54.8620    50.6320 ca         1 8UK       0.109100
     38 OAZ         -6.0080    55.3680    50.1460 os         1 8UK      -0.321100
     39 CAA         -5.1270    56.1730    50.9480 c3         1 8UK       0.145900
     40 H1          -4.3440    52.1220    51.3200 hc         1 8UK       0.068200
     41 H2          -5.3860    53.1440    52.2930 hc         1 8UK       0.068200
     42 H3          -2.8810    53.8090    52.1710 hc         1 8UK       0.055700
     43 H4          -2.0750    51.3940    52.4340 hc         1 8UK       0.045700
     44 H5          -1.2960    52.5250    53.5380 hc         1 8UK       0.045700
     45 H6          -4.1410    54.9260    53.9740 ha         1 8UK       0.169000
     46 H7          -4.5360    53.8610    57.2830 hc         1 8UK       0.035367
     47 H8          -2.9200    54.5860    57.2500 hc         1 8UK       0.035367
     48 H9          -4.2510    55.3430    56.3640 hc         1 8UK       0.035367
     49 H10         -1.7700    52.3830    56.0540 hc         1 8UK       0.041200
     50 H11         -3.2910    51.7100    56.5770 hc         1 8UK       0.041200
     51 H12         -2.0880    50.4360    54.6910 hc         1 8UK       0.042700
     52 H13         -8.3330    49.4570    52.0520 ha         1 8UK       0.146000
     53 H14         -7.9780    46.2270    54.8710 ha         1 8UK       0.126000
     54 H15         -5.8660    47.1780    55.7120 ha         1 8UK       0.115000
     55 H16         -3.0430    49.3490    55.9870 hn         1 8UK       0.471000
     56 H17         -3.7860    49.1600    58.0980 h1         1 8UK       0.042200
     57 H18         -4.7300    47.7900    57.5330 h1         1 8UK       0.042200
     58 H19         -6.1640    49.3320    58.7190 hc         1 8UK       0.050700
     59 H20         -6.6760    49.2500    57.0530 hc         1 8UK       0.050700
     60 H21         -4.9780    51.5050    58.2610 hc         1 8UK       0.050200
     61 H22         -5.5740    51.4730    56.6090 hc         1 8UK       0.050200
     62 H23         -6.9410    52.9710    57.9750 hc         1 8UK       0.038200
     63 H24         -7.2400    51.7160    59.1580 hc         1 8UK       0.038200
     64 H25         -9.2170    52.1370    57.7040 hc         1 8UK       0.037700
     65 H26         -8.6760    50.4730    57.6430 hc         1 8UK       0.037700
     66 H27         -9.3040    51.1440    55.4230 hc         1 8UK       0.072700
     67 H28         -7.5400    50.9300    55.4440 hc         1 8UK       0.072700
     68 H29        -10.1150    52.9370    54.6220 hn         1 8UK       0.311500
     69 H30         -8.6310    55.4840    54.3700 h1         1 8UK       0.046700
     70 H31        -10.3040    55.1610    53.8830 h1         1 8UK       0.046700
     71 H32         -6.9950    55.6230    52.6660 ha         1 8UK       0.120000
     72 H33        -10.6070    53.4070    51.8900 ha         1 8UK       0.110000
     73 H34         -9.9000    53.0320    49.5490 ha         1 8UK       0.112000
     74 H35         -8.3700    53.3740    48.0180 ho         1 8UK       0.457000
     75 H36         -4.2490    56.4730    50.3630 h1         1 8UK       0.038700
     76 H37         -5.6340    57.0830    51.2920 h1         1 8UK       0.038700
     77 H38         -4.7750    55.6120    51.8220 h1         1 8UK       0.038700
@<TRIPOS>BOND
     1     1     2 1   
     2     1    10 1   
     3     1    40 1   
     4     1    41 1   
     5     2     3 1   
     6     2     4 1   
     7     2    42 1   
     8     3     8 1   
     9     3    43 1   
    10     3    44 1   
    11     4     5 2   
    12     4    45 1   
    13     5     6 1   
    14     5     7 1   
    15     6    46 1   
    16     6    47 1   
    17     6    48 1   
    18     7     8 1   
    19     7    49 1   
    20     7    50 1   
    21     8     9 1   
    22     8    51 1   
    23     9    10 ar  
    24     9    19 ar  
    25    10    11 ar  
    26    11    12 ar  
    27    12    13 ar  
    28    12    18 ar  
    29    13    14 ar  
    30    13    52 1   
    31    14    15 1   
    32    14    16 ar  
    33    16    17 ar  
    34    16    53 1   
    35    17    18 ar  
    36    17    54 1   
    37    18    19 ar  
    38    19    20 1   
    39    20    21 1   
    40    20    55 1   
    41    21    22 1   
    42    21    56 1   
    43    21    57 1   
    44    22    23 1   
    45    22    58 1   
    46    22    59 1   
    47    23    24 1   
    48    23    60 1   
    49    23    61 1   
    50    24    25 1   
    51    24    62 1   
    52    24    63 1   
    53    25    26 1   
    54    25    64 1   
    55    25    65 1   
    56    26    27 1   
    57    26    66 1   
    58    26    67 1   
    59    27    28 2   
    60    27    29 1   
    61    29    30 1   
    62    29    68 1   
    63    30    31 1   
    64    30    69 1   
    65    30    70 1   
    66    31    32 ar  
    67    31    33 ar  
    68    32    37 ar  
    69    32    71 1   
    70    33    34 ar  
    71    33    72 1   
    72    34    35 ar  
    73    34    73 1   
    74    35    36 1   
    75    35    37 ar  
    76    36    74 1   
    77    37    38 1   
    78    38    39 1   
    79    39    75 1   
    80    39    76 1   
    81    39    77 1   
@<TRIPOS>SUBSTRUCTURE
     1 8UK         1 TEMP              0 ****  ****    0 ROOT
