@<TRIPOS>MOLECULE
8UK
   77    81     1     0     0
SMALL
bcc


@<TRIPOS>ATOM
      1 CAU         -3.6100    51.3890    52.1320 c6         1 8UK      -0.126700
      2 CBL         -2.7000    52.4260    52.7830 c6         1 8UK      -0.021500
      3 CAV         -1.7840    51.7020    53.7560 c6         1 8UK      -0.069400
      4 CAF         -3.5060    53.4770    53.4930 c2         1 8UK      -0.153200
      5 CBA         -3.6990    53.5050    54.8110 c2         1 8UK      -0.107400
      6 CAB         -4.5060    54.5690    55.4890 c3         1 8UK      -0.044900
      7 CAT         -3.1160    52.4490    55.7070 c6         1 8UK      -0.038200
      8 CBM         -2.6310    51.2190    54.9270 c6         1 8UK       0.001600
      9 CBI         -3.7790    50.3510    54.4460 ca         1 8UK      -0.281600
     10 CBF         -4.2480    50.4470    53.1210 ca         1 8UK       0.503600
     11 NAW         -5.2520    49.7440    52.6360 nb         1 8UK      -0.700000
     12 CBJ         -5.8130    48.8130    53.4260 ca         1 8UK       0.445600
     13 CAL         -6.8290    48.0050    52.8580 ca         1 8UK      -0.174300
     14 CBC         -7.3630    46.9760    53.5760 ca         1 8UK       0.038400
     15 CL1         -8.5920    45.9750    52.8740 cl         1 8UK      -0.117400
     16 CAH         -6.9200    46.6840    54.8780 ca         1 8UK      -0.153000
     17 CAJ         -5.9680    47.4810    55.4490 ca         1 8UK      -0.088000
     18 CBK         -5.4150    48.5900    54.7670 ca         1 8UK      -0.197300
     19 CBH         -4.4240    49.4650    55.3190 ca         1 8UK       0.240600
     20 NAY         -4.0660    49.4200    56.6330 nu         1 8UK      -0.772600
     21 CAQ         -4.9170    49.1780    57.7950 c3         1 8UK       0.229800
     22 CAO         -6.3230    49.7710    57.7470 c3         1 8UK      -0.104400
     23 CAM         -6.3590    51.2510    57.3950 c3         1 8UK      -0.080400
     24 CAN         -7.7260    51.9010    57.5920 c3         1 8UK      -0.071400
     25 CAP         -8.8770    51.2710    56.8070 c3         1 8UK      -0.068400
     26 CAR         -8.6430    51.1560    55.2980 c3         1 8UK      -0.165400
     27 CBB         -8.1980    52.4440    54.6370 c          1 8UK       0.662100
     28 OAC         -7.1680    52.5220    53.9820 o          1 8UK      -0.584100
     29 NAX         -9.0000    53.5090    54.8220 ns         1 8UK      -0.582900
     30 CAS         -8.6360    54.8330    54.3700 c3         1 8UK       0.162300
     31 CBE         -8.6930    55.0200    52.8740 ca         1 8UK      -0.095300
     32 CAK         -7.5740    55.4930    52.1880 ca         1 8UK      -0.158000
     33 CAI         -9.8520    54.7590    52.1630 ca         1 8UK      -0.110000
     34 CAG         -9.8950    54.9670    50.7880 ca         1 8UK      -0.197000
     35 CBD         -8.7870    55.4430    50.1060 ca         1 8UK       0.113100
     36 OAD         -8.7660    55.6700    48.7750 oh         1 8UK      -0.476100
     37 CBG         -7.6060    55.7120    50.8190 ca         1 8UK       0.109100
     38 OAZ         -6.5710    56.1660    50.0840 os         1 8UK      -0.297900
     39 CAA         -5.3620    56.4610    50.7490 c3         1 8UK       0.122700
     40 H1          -3.0300    50.7890    51.4220 hc         1 8UK       0.068200
     41 H2          -4.3990    51.8670    51.5470 hc         1 8UK       0.068200
     42 H3          -2.1090    52.9050    51.9970 hc         1 8UK       0.055700
     43 H4          -1.2880    50.8620    53.2630 hc         1 8UK       0.045700
     44 H5          -0.9980    52.3660    54.1260 hc         1 8UK       0.045700
     45 H6          -3.9690    54.2400    52.8720 ha         1 8UK       0.119000
     46 H7          -5.3580    54.1350    56.0190 hc         1 8UK       0.035367
     47 H8          -3.9100    55.0950    56.2390 hc         1 8UK       0.035367
     48 H9          -4.8880    55.3060    54.7820 hc         1 8UK       0.035367
     49 H10         -2.2800    52.8730    56.2750 hc         1 8UK       0.041200
     50 H11         -3.8610    52.1720    56.4580 hc         1 8UK       0.041200
     51 H12         -1.9820    50.6260    55.5810 hc         1 8UK       0.042700
     52 H13         -7.1430    48.2120    51.8440 ha         1 8UK       0.164000
     53 H14         -7.3200    45.8360    55.4160 ha         1 8UK       0.144000
     54 H15         -5.6240    47.2200    56.4380 ha         1 8UK       0.133000
     55 H16         -3.2910    50.0170    56.8610 hn         1 8UK       0.415800
     56 H17         -4.3810    49.6320    58.6300 h1         1 8UK       0.042200
     57 H18         -4.9740    48.1130    58.0340 h1         1 8UK       0.042200
     58 H19         -6.7540    49.6150    58.7420 hc         1 8UK       0.050700
     59 H20         -6.9570    49.2070    57.0600 hc         1 8UK       0.050700
     60 H21         -5.6320    51.7870    58.0130 hc         1 8UK       0.050200
     61 H22         -6.0330    51.3930    56.3620 hc         1 8UK       0.050200
     62 H23         -7.6470    52.9610    57.3310 hc         1 8UK       0.038200
     63 H24         -7.9870    51.8750    58.6550 hc         1 8UK       0.038200
     64 H25         -9.7870    51.8430    57.0050 hc         1 8UK       0.037700
     65 H26         -9.0820    50.2670    57.1880 hc         1 8UK       0.037700
     66 H27         -9.5650    50.8100    54.8190 hc         1 8UK       0.072700
     67 H28         -7.8810    50.4040    55.0880 hc         1 8UK       0.072700
     68 H29         -9.8460    53.4060    55.3580 hn         1 8UK       0.311500
     69 H30         -7.6340    55.0810    54.7300 h1         1 8UK       0.046700
     70 H31         -9.3210    55.5280    54.8560 h1         1 8UK       0.046700
     71 H32         -6.6680    55.6830    52.7500 ha         1 8UK       0.138000
     72 H33        -10.7360    54.3900    52.6700 ha         1 8UK       0.128000
     73 H34        -10.8080    54.7600    50.2410 ha         1 8UK       0.130000
     74 H35         -9.6230    55.4540    48.3910 ho         1 8UK       0.418000
     75 H36         -4.6720    56.8270    49.9920 h1         1 8UK       0.038700
     76 H37         -5.4910    57.2350    51.5110 h1         1 8UK       0.038700
     77 H38         -4.9260    55.5760    51.2200 h1         1 8UK       0.038700
@<TRIPOS>BOND
     1     1     2 1   
     2     1    10 1   
     3     1    40 1   
     4     1    41 1   
     5     2     3 1   
     6     2     4 1   
     7     2    42 1   
     8     3     8 1   
     9     3    43 1   
    10     3    44 1   
    11     4     5 2   
    12     4    45 1   
    13     5     6 1   
    14     5     7 1   
    15     6    46 1   
    16     6    47 1   
    17     6    48 1   
    18     7     8 1   
    19     7    49 1   
    20     7    50 1   
    21     8     9 1   
    22     8    51 1   
    23     9    10 ar  
    24     9    19 ar  
    25    10    11 ar  
    26    11    12 ar  
    27    12    13 ar  
    28    12    18 ar  
    29    13    14 ar  
    30    13    52 1   
    31    14    15 1   
    32    14    16 ar  
    33    16    17 ar  
    34    16    53 1   
    35    17    18 ar  
    36    17    54 1   
    37    18    19 ar  
    38    19    20 1   
    39    20    21 1   
    40    20    55 1   
    41    21    22 1   
    42    21    56 1   
    43    21    57 1   
    44    22    23 1   
    45    22    58 1   
    46    22    59 1   
    47    23    24 1   
    48    23    60 1   
    49    23    61 1   
    50    24    25 1   
    51    24    62 1   
    52    24    63 1   
    53    25    26 1   
    54    25    64 1   
    55    25    65 1   
    56    26    27 1   
    57    26    66 1   
    58    26    67 1   
    59    27    28 2   
    60    27    29 1   
    61    29    30 1   
    62    29    68 1   
    63    30    31 1   
    64    30    69 1   
    65    30    70 1   
    66    31    32 ar  
    67    31    33 ar  
    68    32    37 ar  
    69    32    71 1   
    70    33    34 ar  
    71    33    72 1   
    72    34    35 ar  
    73    34    73 1   
    74    35    36 1   
    75    35    37 ar  
    76    36    74 1   
    77    37    38 1   
    78    38    39 1   
    79    39    75 1   
    80    39    76 1   
    81    39    77 1   
@<TRIPOS>SUBSTRUCTURE
     1 8UK         1 TEMP              0 ****  ****    0 ROOT
