@<TRIPOS>MOLECULE
8UL
   57    60     1     0     0
SMALL
No Charge or Current Charge


@<TRIPOS>ATOM
      1 C2           2.2380     2.3670    -1.0520 c2         1 8UL       0.390100
      2 C3           2.1470     1.0650    -1.4160 ce         1 8UL      -0.236900
      3 C4           2.4550    -0.0890    -0.4190 c6         1 8UL       0.195800
      4 C5           2.5730     0.5310     0.9470 cc         1 8UL      -0.227300
      5 C6           2.6300     1.9070     1.2050 cc         1 8UL       0.472300
      6 C10          2.6730     0.0190     2.2780 cd         1 8UL      -0.085300
      7 C14          3.8660    -0.7360    -0.7700 c3         1 8UL      -0.043700
      8 C15          3.9530    -1.4820    -2.1310 c3         1 8UL      -0.087100
      9 C17          1.4380    -2.4930    -0.2290 ca         1 8UL      -0.220000
     10 C18          0.3250    -3.3320    -0.1010 ca         1 8UL       0.192000
     11 C19         -1.1610    -1.4210    -0.1400 ca         1 8UL       0.354000
     12 N23         -2.4560    -0.8580    -0.0900 nh         1 8UL      -0.775400
     13 C24         -2.9290     0.0110    -1.2040 c6         1 8UL       0.194800
     14 C25         -3.9470     1.0680    -0.7040 c6         1 8UL      -0.059400
     15 O32         -7.3080     1.3720     0.1070 o          1 8UL      -0.733500
     16 C29         -6.1700     1.4380     0.5490 c          1 8UL       0.723000
     17 O31         -5.8090     2.2740     1.3650 o          1 8UL      -0.733500
     18 C26         -5.1370     0.4030     0.0440 c6         1 8UL      -0.191700
     19 C27         -4.5900    -0.4980     1.1860 c6         1 8UL      -0.059400
     20 C28         -3.5570    -1.5270     0.6590 c6         1 8UL       0.194800
     21 C30         -0.9680    -2.8070    -0.0620 ca         1 8UL      -0.236000
     22 F21          0.5060    -4.6670    -0.0090 f          1 8UL      -0.198000
     23 C20         -0.0450    -0.5800    -0.2680 ca         1 8UL      -0.176000
     24 C16          1.2690    -1.0930    -0.3360 ca         1 8UL      -0.015300
     25 C22          5.0580     0.2560    -0.6710 c3         1 8UL      -0.087100
     26 C8           1.7250     0.7180    -2.7400 cg         1 8UL       0.319700
     27 N9           1.3510     0.4750    -3.8170 n1         1 8UL      -0.510000
     28 N7           1.9960     3.4570    -1.8550 nv         1 8UL      -0.964000
     29 C13          2.6640    -1.4240     2.7860 c3         1 8UL      -0.034800
     30 N11          2.7980     1.1430     3.2090 na         1 8UL      -0.008200
     31 N12          2.7710     2.3370     2.4610 nd         1 8UL      -0.519800
     32 O1           2.5500     2.8080     0.1930 os         1 8UL      -0.336400
     33 H1           4.0700    -1.4880    -0.0010 hc         1 8UL       0.041700
     34 H2           4.0640    -0.7780    -2.9640 hc         1 8UL       0.033867
     35 H3           4.8280    -2.1430    -2.1460 hc         1 8UL       0.033867
     36 H4           3.0680    -2.0970    -2.3250 hc         1 8UL       0.033867
     37 H5           2.4210    -2.9500    -0.2290 ha         1 8UL       0.121000
     38 H6          -2.0850     0.5320    -1.6770 h1         1 8UL       0.024200
     39 H7          -3.4030    -0.6090    -1.9790 h1         1 8UL       0.024200
     40 H8          -3.4330     1.7760    -0.0390 hc         1 8UL       0.051950
     41 H9          -4.3170     1.6520    -1.5570 hc         1 8UL       0.051950
     42 H11         -5.6580    -0.2480    -0.6730 hc         1 8UL       0.026700
     43 H12         -4.1160     0.1220     1.9590 hc         1 8UL       0.051950
     44 H13         -5.4170    -1.0280     1.6760 hc         1 8UL       0.051950
     45 H14         -4.0650    -2.2520     0.0050 h1         1 8UL       0.024200
     46 H15         -3.1500    -2.0820     1.5170 h1         1 8UL       0.024200
     47 H16         -1.8130    -3.4820     0.0270 ha         1 8UL       0.132000
     48 H17         -0.2060     0.4930    -0.2940 ha         1 8UL       0.125000
     49 H18          5.1470     0.6810     0.3350 hc         1 8UL       0.033867
     50 H19          6.0030    -0.2560    -0.8910 hc         1 8UL       0.033867
     51 H20          4.9490     1.0800    -1.3860 hc         1 8UL       0.033867
     52 H21          1.3960     3.2980    -2.6600 hn         1 8UL       0.500000
     53 H22          1.8380     4.3340    -1.3670 hn         1 8UL       0.500000
     54 H23          3.3780    -2.0450     2.2330 hc         1 8UL       0.058367
     55 H24          2.9320    -1.4800     3.8480 hc         1 8UL       0.058367
     56 H25          1.6700    -1.8730     2.6710 hc         1 8UL       0.058367
     57 H26          2.8920     1.1170     4.2240 hn         1 8UL       0.374000
@<TRIPOS>BOND
     1     1     2 2   
     2     1    28 1   
     3     1    32 1   
     4     2     3 1   
     5     2    26 1   
     6     3     4 1   
     7     3     7 1   
     8     3    24 1   
     9     4     5 1   
    10     4     6 2   
    11     5    31 2   
    12     5    32 1   
    13     6    29 1   
    14     6    30 1   
    15     7     8 1   
    16     7    25 1   
    17     7    33 1   
    18     8    34 1   
    19     8    35 1   
    20     8    36 1   
    21     9    10 ar  
    22     9    24 ar  
    23     9    37 1   
    24    10    21 ar  
    25    10    22 1   
    26    11    12 1   
    27    11    21 ar  
    28    11    23 ar  
    29    12    13 1   
    30    12    20 1   
    31    13    14 1   
    32    13    38 1   
    33    13    39 1   
    34    14    18 1   
    35    14    40 1   
    36    14    41 1   
    37    15    16 1   
    38    16    17 1   
    39    16    18 1   
    40    18    19 1   
    41    18    42 1   
    42    19    20 1   
    43    19    43 1   
    44    19    44 1   
    45    20    45 1   
    46    20    46 1   
    47    21    47 1   
    48    23    24 ar  
    49    23    48 1   
    50    25    49 1   
    51    25    50 1   
    52    25    51 1   
    53    26    27 3   
    54    28    52 1   
    55    28    53 1   
    56    29    54 1   
    57    29    55 1   
    58    29    56 1   
    59    30    31 1   
    60    30    57 1   
@<TRIPOS>SUBSTRUCTURE
     1 8UL         1 TEMP              0 ****  ****    0 ROOT
