@<TRIPOS>MOLECULE
8UL
   57    60     1     0     0
SMALL
bcc


@<TRIPOS>ATOM
      1 C2           2.3400     2.3380    -1.1190 c2         1 8UL       0.390100
      2 C3           2.1330     1.0020    -1.3540 ce         1 8UL      -0.236900
      3 C4           2.4600    -0.1200    -0.3700 c6         1 8UL       0.195800
      4 C5           2.6230     0.5560     0.9580 cc         1 8UL      -0.292600
      5 C6           2.7550     1.9330     1.0940 cc         1 8UL       0.537600
      6 C10          2.7200     0.1000     2.2600 cd         1 8UL      -0.034600
      7 C14          3.7870    -0.8370    -0.7620 c3         1 8UL      -0.043700
      8 C15          3.7650    -1.4600    -2.1570 c3         1 8UL      -0.087100
      9 C17          1.4190    -2.4630    -0.2110 ca         1 8UL      -0.238000
     10 C18          0.2810    -3.2270    -0.0610 ca         1 8UL       0.156900
     11 C19         -1.1590    -1.3140    -0.0050 ca         1 8UL       0.215600
     12 N23         -2.4060    -0.7240     0.1240 nh         1 8UL      -0.637000
     13 C24         -2.6940     0.4460    -0.7020 c6         1 8UL       0.194800
     14 C25         -3.8810     1.2380    -0.1820 c6         1 8UL      -0.059400
     15 O32         -7.2710     0.4490     0.9700 o          1 8UL      -0.838800
     16 C29         -6.3650     1.1290     0.4460 c          1 8UL       0.933600
     17 O31         -6.3890     2.3620     0.2560 o          1 8UL      -0.838800
     18 C26         -5.1170     0.3650    -0.0430 c6         1 8UL      -0.191700
     19 C27         -4.7660    -0.8250     0.8370 c6         1 8UL      -0.059400
     20 C28         -3.5580    -1.5890     0.3140 c6         1 8UL       0.194800
     21 C30         -0.9910    -2.7080     0.0300 ca         1 8UL      -0.254000
     22 F21          0.4170    -4.5660    -0.0200 f          1 8UL      -0.162900
     23 C20         -0.0030    -0.5300    -0.1510 ca         1 8UL      -0.194000
     24 C16          1.2650    -1.0800    -0.2660 ca         1 8UL      -0.015300
     25 C22          4.9960     0.0870    -0.6570 c3         1 8UL      -0.087100
     26 C8           1.5700     0.6710    -2.6000 cg         1 8UL       0.230500
     27 N9           1.0870     0.4220    -3.6220 n1         1 8UL      -0.420800
     28 N7           2.2190     3.3210    -2.0230 nv         1 8UL      -0.853600
     29 C13          2.6530    -1.2680     2.8350 c3         1 8UL      -0.034800
     30 N11          2.8970     1.1990     3.0160 na         1 8UL      -0.008600
     31 N12          2.9190     2.3420     2.3250 nd         1 8UL      -0.519800
     32 O1           2.7270     2.8220     0.0720 os         1 8UL      -0.336400
     33 H1           3.9370    -1.6340    -0.0250 hc         1 8UL       0.041700
     34 H2           3.8590    -0.6980    -2.9320 hc         1 8UL       0.033867
     35 H3           4.6140    -2.1360    -2.2690 hc         1 8UL       0.033867
     36 H4           2.8630    -2.0360    -2.3630 hc         1 8UL       0.033867
     37 H5           2.3790    -2.9530    -0.2850 ha         1 8UL       0.139000
     38 H6          -1.8270     1.1000    -0.7300 h1         1 8UL       0.024200
     39 H7          -2.8870     0.1330    -1.7390 h1         1 8UL       0.024200
     40 H8          -3.6220     1.6760     0.7870 hc         1 8UL       0.051950
     41 H9          -4.0630     2.0670    -0.8670 hc         1 8UL       0.051950
     42 H11         -5.3630    -0.0250    -1.0430 hc         1 8UL       0.026700
     43 H12         -4.5570    -0.4810     1.8560 hc         1 8UL       0.051950
     44 H13         -5.6040    -1.5200     0.9030 hc         1 8UL       0.051950
     45 H14         -3.8270    -2.0980    -0.6250 h1         1 8UL       0.024200
     46 H15         -3.3070    -2.3640     1.0390 h1         1 8UL       0.024200
     47 H16         -1.8250    -3.3910     0.1030 ha         1 8UL       0.150000
     48 H17         -0.0850     0.5470    -0.1550 ha         1 8UL       0.143000
     49 H18          5.1460     0.4680     0.3520 hc         1 8UL       0.033867
     50 H19          5.8990    -0.4580    -0.9350 hc         1 8UL       0.033867
     51 H20          4.9100     0.9370    -1.3380 hc         1 8UL       0.033867
     52 H21          1.8750     3.1100    -2.9440 hn         1 8UL       0.444800
     53 H22          2.0540     4.2620    -1.7010 hn         1 8UL       0.444800
     54 H23          3.4350    -1.9050     2.4210 hc         1 8UL       0.058367
     55 H24          2.7720    -1.2500     3.9170 hc         1 8UL       0.058367
     56 H25          1.6960    -1.7350     2.6040 hc         1 8UL       0.058367
     57 H26          2.9970     1.2280     4.0180 hn         1 8UL       0.323700
@<TRIPOS>BOND
     1     1     2 2   
     2     1    28 1   
     3     1    32 1   
     4     2     3 1   
     5     2    26 1   
     6     3     4 1   
     7     3     7 1   
     8     3    24 1   
     9     4     5 1   
    10     4     6 2   
    11     5    31 2   
    12     5    32 1   
    13     6    29 1   
    14     6    30 1   
    15     7     8 1   
    16     7    25 1   
    17     7    33 1   
    18     8    34 1   
    19     8    35 1   
    20     8    36 1   
    21     9    10 ar  
    22     9    24 ar  
    23     9    37 1   
    24    10    21 ar  
    25    10    22 1   
    26    11    12 1   
    27    11    21 ar  
    28    11    23 ar  
    29    12    13 1   
    30    12    20 1   
    31    13    14 1   
    32    13    38 1   
    33    13    39 1   
    34    14    18 1   
    35    14    40 1   
    36    14    41 1   
    37    15    16 1   
    38    16    17 1   
    39    16    18 1   
    40    18    19 1   
    41    18    42 1   
    42    19    20 1   
    43    19    43 1   
    44    19    44 1   
    45    20    45 1   
    46    20    46 1   
    47    21    47 1   
    48    23    24 ar  
    49    23    48 1   
    50    25    49 1   
    51    25    50 1   
    52    25    51 1   
    53    26    27 3   
    54    28    52 1   
    55    28    53 1   
    56    29    54 1   
    57    29    55 1   
    58    29    56 1   
    59    30    31 1   
    60    30    57 1   
@<TRIPOS>SUBSTRUCTURE
     1 8UL         1 TEMP              0 ****  ****    0 ROOT
