@<TRIPOS>MOLECULE
8UM
   51    54     1     0     0
SMALL
abcg2


@<TRIPOS>ATOM
      1 C7          -3.0200    -0.4650     0.2080 ca         1 8UM       0.158000
      2 C6          -1.5890     1.7350     1.2120 ca         1 8UM       0.041200
      3 C1           0.6870    -2.7250     0.8790 cc         1 8UM      -0.175000
      4 C5          -2.1880     1.7810    -0.0600 ca         1 8UM      -0.182600
      5 C4          -1.7490     0.5830     1.9970 ca         1 8UM      -0.160000
      6 C3          -2.9080     0.6840    -0.5420 ca         1 8UM       0.000000
      7 C2          -0.5150    -3.2240     0.3450 cc         1 8UM       0.020000
      8 C8          -2.4420    -0.4780     1.4870 ca         1 8UM       0.182000
      9 C9           1.0940    -1.5450     0.2940 cd         1 8UM      -0.112800
     10 C10         -0.9970    -2.4300    -0.6600 cd         1 8UM      -0.501500
     11 C11         -0.8260     2.8550     1.6700 cc         1 8UM      -0.276200
     12 C12         -0.6930     3.9220     0.8610 cd         1 8UM      -0.024400
     13 C13          3.3520    -1.2160     1.1400 c2         1 8UM      -0.017400
     14 C14         -2.0450     2.9620    -0.9110 c          1 8UM       0.570600
     15 C15          2.2340    -0.7070     0.6050 cf         1 8UM      -0.153400
     16 C16          4.5430     0.9070     1.1630 c          1 8UM       0.572000
     17 C17          2.1560     0.7840     0.4240 c6         1 8UM      -0.025200
     18 C18          3.5250     1.4220     0.1570 c6         1 8UM      -0.118000
     19 C19          3.3910     2.9370     0.2610 c3         1 8UM      -0.075100
     20 C21          3.9950     1.0060    -1.2570 c3         1 8UM      -0.068400
     21 N22         -1.2790     3.9610    -0.3700 ns         1 8UM      -0.385100
     22 N23          4.4160    -0.4120     1.4950 ns         1 8UM      -0.419100
     23 N24         -3.5830    -1.6390    -0.3400 nu         1 8UM      -0.837100
     24 O25         -2.5470     3.0790    -2.0210 o          1 8UM      -0.531000
     25 O26          5.4550     1.5780     1.6060 o          1 8UM      -0.527000
     26 F29         -2.5730    -1.5890     2.2170 f          1 8UM      -0.172000
     27 S30          0.0060    -1.0690    -0.9520 ss         1 8UM       0.357000
     28 S31         -2.5730    -2.4840    -1.3890 sy         1 8UM       1.172600
     29 H1           1.2180    -3.1930     1.6960 ha         1 8UM       0.136000
     30 H2          -1.3120     0.5230     2.9850 ha         1 8UM       0.141000
     31 H3          -3.3560     0.7240    -1.5250 ha         1 8UM       0.172000
     32 H4          -1.0140    -4.1130     0.7040 ha         1 8UM       0.148000
     33 H5          -0.3560     2.8440     2.6420 ha         1 8UM       0.204000
     34 H6          -0.1250     4.7990     1.1330 h4         1 8UM       0.203000
     35 H7           3.4950    -2.2700     1.3300 h4         1 8UM       0.202000
     36 H8           1.4920     1.0580    -0.4020 hc         1 8UM       0.057700
     37 H9           1.6990     1.2230     1.3190 hc         1 8UM       0.057700
     38 H10          3.0610     3.2390     1.2550 hc         1 8UM       0.044033
     39 H11          4.3220     3.4560     0.0430 hc         1 8UM       0.044033
     40 H12          2.6430     3.2830    -0.4550 hc         1 8UM       0.044033
     41 H13          5.5670     1.2090    -2.7090 hc         1 8UM       0.039367
     42 H14          5.5180     2.5380    -1.5640 hc         1 8UM       0.039367
     43 H15          6.1740     0.9750    -1.0810 hc         1 8UM       0.039367
     44 H16          3.9280    -0.0800    -1.3610 hc         1 8UM       0.048700
     45 H17          3.2640     1.4210    -1.9570 hc         1 8UM       0.048700
     46 H18         -1.1490     4.7880    -0.9360 hn         1 8UM       0.332500
     47 H19          5.1540    -0.8220     2.0490 hn         1 8UM       0.329500
     48 H20         -4.0080    -2.2690     0.3360 hn         1 8UM       0.494000
     49 C20          5.3900     1.4600    -1.6640 c3         1 8UM      -0.092100
     50 O27         -2.4820    -1.6980    -2.6050 o          1 8UM      -0.524000
     51 O28         -3.0760    -3.8430    -1.4090 o          1 8UM      -0.524000
@<TRIPOS>BOND
     1     1     6 ar  
     2     1     8 ar  
     3     1    23 1   
     4     2     4 ar  
     5     2     5 ar  
     6     2    11 1   
     7     3     7 1   
     8     3     9 2   
     9     3    29 1   
    10     4     6 ar  
    11     4    14 1   
    12     5     8 ar  
    13     5    30 1   
    14     6    31 1   
    15     7    10 2   
    16     7    32 1   
    17     8    26 1   
    18     9    15 1   
    19     9    27 1   
    20    10    27 1   
    21    10    28 1   
    22    11    12 2   
    23    11    33 1   
    24    12    21 1   
    25    12    34 1   
    26    13    15 2   
    27    13    22 1   
    28    13    35 1   
    29    14    21 1   
    30    14    24 2   
    31    15    17 1   
    32    16    18 1   
    33    16    22 1   
    34    16    25 2   
    35    17    18 1   
    36    17    36 1   
    37    17    37 1   
    38    18    19 1   
    39    18    20 1   
    40    19    38 1   
    41    19    39 1   
    42    19    40 1   
    43    20    44 1   
    44    20    45 1   
    45    20    49 1   
    46    21    46 1   
    47    22    47 1   
    48    23    28 1   
    49    23    48 1   
    50    28    50 2   
    51    28    51 2   
    52    41    49 1   
    53    42    49 1   
    54    43    49 1   
@<TRIPOS>SUBSTRUCTURE
     1 8UM         1 TEMP              0 ****  ****    0 ROOT
