@<TRIPOS>MOLECULE
8UM
   51    54     1     0     0
SMALL
No Charge or Current Charge


@<TRIPOS>ATOM
      1 C7          -2.8750    -0.4680     0.1030 ca         1 8UM       0.158000
      2 C6          -1.5870     1.7970     1.2190 ca         1 8UM       0.041200
      3 C1           0.5390    -2.6710     1.0810 cc         1 8UM      -0.175000
      4 C5          -1.7070     1.6680    -0.1770 ca         1 8UM      -0.182600
      5 C4          -2.1300     0.8090     2.0560 ca         1 8UM      -0.160000
      6 C3          -2.3590     0.5440    -0.7290 ca         1 8UM       0.000000
      7 C2          -0.6930    -3.1620     0.5830 cc         1 8UM       0.020000
      8 C8          -2.7680    -0.3140     1.5050 ca         1 8UM       0.182000
      9 C9           1.1270    -1.7260     0.2780 cd         1 8UM      -0.112800
     10 C10         -1.0550    -2.5830    -0.6050 cd         1 8UM      -0.501500
     11 C11         -0.8990     2.9460     1.8040 cc         1 8UM      -0.276200
     12 C12         -0.3670     3.9000     0.9590 cd         1 8UM      -0.024400
     13 C13          3.4340    -1.4010     1.0610 c2         1 8UM      -0.017400
     14 C14         -1.1160     2.7210    -1.0630 c          1 8UM       0.570600
     15 C15          2.2640    -0.8830     0.6410 cf         1 8UM      -0.153400
     16 C16          4.6730     0.7130     0.8540 c          1 8UM       0.572000
     17 C17          2.0910     0.6420     0.5740 c6         1 8UM      -0.025200
     18 C18          3.4170     1.3850     0.1960 c6         1 8UM      -0.118000
     19 C19          3.3110     2.8720     0.6700 c3         1 8UM      -0.075100
     20 C21          3.5740     1.3430    -1.3700 c3         1 8UM      -0.068400
     21 N22         -0.4920     3.7570    -0.4140 ns         1 8UM      -0.385100
     22 N23          4.5160    -0.5610     1.3510 ns         1 8UM      -0.419100
     23 N24         -3.4250    -1.6350    -0.4550 nu         1 8UM      -0.837100
     24 O25         -1.1710     2.6770    -2.2820 o          1 8UM      -0.531000
     25 O26          5.7430     1.2900     0.9880 o          1 8UM      -0.527000
     26 F29         -3.2530    -1.2690     2.3340 f          1 8UM      -0.172000
     27 S30          0.1850    -1.4870    -1.2120 ss         1 8UM       0.357000
     28 S31         -2.6040    -2.7380    -1.4180 sy         1 8UM       1.172600
     29 H1           0.9240    -2.9670     2.0510 ha         1 8UM       0.136000
     30 H2          -2.0460     0.8980     3.1350 ha         1 8UM       0.141000
     31 H3          -2.4450     0.4390    -1.8070 ha         1 8UM       0.172000
     32 H4          -1.3080    -3.8630     1.1430 ha         1 8UM       0.148000
     33 H5          -0.7990     3.0620     2.8810 ha         1 8UM       0.204000
     34 H6           0.1630     4.7930     1.2860 h4         1 8UM       0.203000
     35 H7           3.6060    -2.4750     1.1640 h4         1 8UM       0.202000
     36 H8           1.2790     0.9240    -0.1090 hc         1 8UM       0.057700
     37 H9           1.7580     0.9690     1.5690 hc         1 8UM       0.057700
     38 H10          3.1550     2.9330     1.7540 hc         1 8UM       0.044033
     39 H11          4.2180     3.4470     0.4470 hc         1 8UM       0.044033
     40 H12          2.4710     3.3850     0.1870 hc         1 8UM       0.044033
     41 H13          4.7870     1.9290    -3.0840 hc         1 8UM       0.039367
     42 H14          4.8690     3.0810    -1.7440 hc         1 8UM       0.039367
     43 H15          5.7460     1.5330    -1.6530 hc         1 8UM       0.039367
     44 H16          3.5680     0.2970    -1.7020 hc         1 8UM       0.048700
     45 H17          2.6920     1.8010    -1.8360 hc         1 8UM       0.048700
     46 H18         -0.1030     4.4590    -1.0330 hn         1 8UM       0.332500
     47 H19          5.3380    -0.9600     1.7910 hn         1 8UM       0.329500
     48 H20         -3.8660    -2.2500     0.2180 hn         1 8UM       0.494000
     49 C20          4.8220     2.0150    -1.9910 c3         1 8UM      -0.092100
     50 O27         -2.5800    -2.1410    -2.7550 o          1 8UM      -0.524000
     51 O28         -3.2470    -4.0130    -1.1000 o          1 8UM      -0.524000
@<TRIPOS>BOND
     1     1     6 ar  
     2     1     8 ar  
     3     1    23 1   
     4     2     4 ar  
     5     2     5 ar  
     6     2    11 1   
     7     3     7 1   
     8     3     9 2   
     9     3    29 1   
    10     4     6 ar  
    11     4    14 1   
    12     5     8 ar  
    13     5    30 1   
    14     6    31 1   
    15     7    10 2   
    16     7    32 1   
    17     8    26 1   
    18     9    15 1   
    19     9    27 1   
    20    10    27 1   
    21    10    28 1   
    22    11    12 2   
    23    11    33 1   
    24    12    21 1   
    25    12    34 1   
    26    13    15 2   
    27    13    22 1   
    28    13    35 1   
    29    14    21 1   
    30    14    24 2   
    31    15    17 1   
    32    16    18 1   
    33    16    22 1   
    34    16    25 2   
    35    17    18 1   
    36    17    36 1   
    37    17    37 1   
    38    18    19 1   
    39    18    20 1   
    40    19    38 1   
    41    19    39 1   
    42    19    40 1   
    43    20    44 1   
    44    20    45 1   
    45    20    49 1   
    46    21    46 1   
    47    22    47 1   
    48    23    28 1   
    49    23    48 1   
    50    28    50 2   
    51    28    51 2   
    52    41    49 1   
    53    42    49 1   
    54    43    49 1   
@<TRIPOS>SUBSTRUCTURE
     1 8UM         1 TEMP              0 ****  ****    0 ROOT
