@<TRIPOS>MOLECULE
8UN
   65    70     1     0     0
SMALL
bcc


@<TRIPOS>ATOM
      1 C1          -2.2960     1.1800     1.0470 ca         1 8UN      -0.094000
      2 C2          -0.9870     1.5520     1.2740 ca         1 8UN      -0.137000
      3 C3          -0.0010     0.6190     0.9650 ca         1 8UN      -0.059200
      4 C4          -0.3170    -0.6510     0.4580 ca         1 8UN       0.052400
      5 C5          -1.6410    -1.0190     0.2520 ca         1 8UN       0.005000
      6 C6          -2.6310    -0.0890     0.5330 ca         1 8UN      -0.192600
      7 C12         -6.2680     0.4680    -0.2220 ca         1 8UN       0.103600
      8 C13         -7.0750    -0.6390     0.0610 ca         1 8UN      -0.179500
      9 C14         -8.4350    -0.5770    -0.1810 ca         1 8UN      -0.059000
     10 C15         -9.0150     0.5750    -0.7080 ca         1 8UN      -0.056000
     11 C16         -8.2130     1.6810    -0.9900 ca         1 8UN      -0.059000
     12 C17         -6.8580     1.6240    -0.7490 ca         1 8UN      -0.179500
     13 C25          3.2990     3.9390     0.8440 c6         1 8UN      -0.071900
     14 C26          2.8210     2.5660     0.3630 c6         1 8UN      -0.076700
     15 C27          1.9150     2.7270    -0.8590 c6         1 8UN      -0.071900
     16 C29          3.0710     4.8780    -1.4870 c6         1 8UN      -0.075400
     17 C30        -10.4160     0.6220    -0.9570 cg         1 8UN       0.241800
     18 N1           0.8330    -1.3600     0.2340 nc         1 8UN      -0.539100
     19 C7           1.8000    -0.5630     0.5910 cd         1 8UN       0.465400
     20 N2           1.3650     0.6530     1.0480 na         1 8UN      -0.131300
     21 C8           3.2210    -0.9380     0.4710 ca         1 8UN      -0.084900
     22 C9           2.1310     1.8150     1.5140 c3         1 8UN       0.070000
     23 C10          3.0690     1.4480     2.6560 c3         1 8UN      -0.107100
     24 C11         -4.0430    -0.5020     0.3040 c          1 8UN       0.694700
     25 N3          -4.9000     0.5190     0.0060 ns         1 8UN      -0.473100
     26 O1          -4.3870    -1.6680     0.3590 o          1 8UN      -0.568100
     27 C18          3.9390    -0.4910    -0.6510 ca         1 8UN      -0.095000
     28 C19          5.2490    -0.8700    -0.7610 ca         1 8UN       0.058100
     29 C20          5.8550    -1.6790     0.1900 ca         1 8UN       0.067100
     30 C21          5.1780    -2.1490     1.2860 ca         1 8UN      -0.100000
     31 C22          3.8390    -1.7620     1.4030 ca         1 8UN       0.005100
     32 O2           7.1310    -1.9130    -0.1670 os         1 8UN      -0.312900
     33 C23          7.3860    -1.1160    -1.3200 c5         1 8UN       0.328200
     34 O3           6.1330    -0.5860    -1.7390 os         1 8UN      -0.313900
     35 BR1          2.8750    -2.3790     2.8990 br         1 8UN      -0.061100
     36 C24          3.9770     4.7310    -0.2710 c6         1 8UN      -0.073900
     37 C28          2.6020     3.5120    -1.9720 c6         1 8UN      -0.073900
     38 N4         -11.5510     0.6580    -1.1600 n1         1 8UN      -0.371800
     39 H1          -3.0740     1.8860     1.3100 ha         1 8UN       0.130000
     40 H2          -0.7570     2.5280     1.6790 ha         1 8UN       0.140000
     41 H3          -1.8870    -1.9990    -0.1350 ha         1 8UN       0.171000
     42 H4          -6.6600    -1.5430     0.4710 ha         1 8UN       0.152000
     43 H5          -9.0500    -1.4370     0.0470 ha         1 8UN       0.143500
     44 H6          -8.6470     2.5830    -1.3990 ha         1 8UN       0.143500
     45 H7          -6.2430     2.4870    -0.9730 ha         1 8UN       0.152000
     46 H8           2.4370     4.5030     1.2190 hc         1 8UN       0.042200
     47 H9           3.9930     3.8350     1.6800 hc         1 8UN       0.042200
     48 H10          3.7080     1.9970     0.0590 hc         1 8UN       0.059700
     49 H11          1.6090     1.7520    -1.2480 hc         1 8UN       0.042200
     50 H12          0.9930     3.2420    -0.5630 hc         1 8UN       0.042200
     51 H13          2.2020     5.4890    -1.2200 hc         1 8UN       0.041700
     52 H14          3.5930     5.4090    -2.2870 hc         1 8UN       0.041700
     53 H15          1.3740     2.4850     1.9270 h1         1 8UN       0.061700
     54 H16          3.4140     2.3520     3.1540 hc         1 8UN       0.052367
     55 H17          2.5540     0.8420     3.4020 hc         1 8UN       0.052367
     56 H18          3.9490     0.9030     2.3170 hc         1 8UN       0.052367
     57 H19         -4.4810     1.4190    -0.1730 hn         1 8UN       0.321500
     58 H20          3.4560     0.1200    -1.4020 ha         1 8UN       0.164000
     59 H21          5.6580    -2.7870     2.0150 ha         1 8UN       0.171000
     60 H22          8.0680    -0.3010    -1.0620 h2         1 8UN       0.070700
     61 H23          7.8080    -1.7360    -2.1110 h2         1 8UN       0.070700
     62 H24          4.2750     5.7120     0.1060 hc         1 8UN       0.042200
     63 H25          4.9000     4.2190    -0.5650 hc         1 8UN       0.042200
     64 H26          3.4650     2.9400    -2.3320 hc         1 8UN       0.042200
     65 H27          1.9230     3.6170    -2.8210 hc         1 8UN       0.042200
@<TRIPOS>BOND
     1     1     2 ar  
     2     1     6 ar  
     3     1    39 1   
     4     2     3 ar  
     5     2    40 1   
     6     3     4 ar  
     7     3    20 1   
     8     4     5 ar  
     9     4    18 1   
    10     5     6 ar  
    11     5    41 1   
    12     6    24 1   
    13     7     8 ar  
    14     7    12 ar  
    15     7    25 1   
    16     8     9 ar  
    17     8    42 1   
    18     9    10 ar  
    19     9    43 1   
    20    10    11 ar  
    21    10    17 1   
    22    11    12 ar  
    23    11    44 1   
    24    12    45 1   
    25    13    14 1   
    26    13    36 1   
    27    13    46 1   
    28    13    47 1   
    29    14    15 1   
    30    14    22 1   
    31    14    48 1   
    32    15    37 1   
    33    15    49 1   
    34    15    50 1   
    35    16    36 1   
    36    16    37 1   
    37    16    51 1   
    38    16    52 1   
    39    17    38 3   
    40    18    19 2   
    41    19    20 1   
    42    19    21 1   
    43    20    22 1   
    44    21    27 ar  
    45    21    31 ar  
    46    22    23 1   
    47    22    53 1   
    48    23    54 1   
    49    23    55 1   
    50    23    56 1   
    51    24    25 1   
    52    24    26 2   
    53    25    57 1   
    54    27    28 ar  
    55    27    58 1   
    56    28    29 ar  
    57    28    34 1   
    58    29    30 ar  
    59    29    32 1   
    60    30    31 ar  
    61    30    59 1   
    62    31    35 1   
    63    32    33 1   
    64    33    34 1   
    65    33    60 1   
    66    33    61 1   
    67    36    62 1   
    68    36    63 1   
    69    37    64 1   
    70    37    65 1   
@<TRIPOS>SUBSTRUCTURE
     1 8UN         1 TEMP              0 ****  ****    0 ROOT
