@<TRIPOS>MOLECULE
8UN
   65    70     1     0     0
SMALL
No Charge or Current Charge


@<TRIPOS>ATOM
      1 C1          -2.4420     1.1810     0.7150 ca         1 8UN      -0.076000
      2 C2          -1.1180     1.5580     1.0160 ca         1 8UN      -0.119000
      3 C3          -0.0870     0.6470     0.7410 ca         1 8UN      -0.059200
      4 C4          -0.3360    -0.5820     0.1980 ca         1 8UN       0.052400
      5 C5          -1.6450    -0.9800    -0.1110 ca         1 8UN       0.023000
      6 C6          -2.7240    -0.0950     0.1460 ca         1 8UN      -0.192600
      7 C12         -6.5510     0.3380    -0.0750 ca         1 8UN       0.011000
      8 C13         -7.2610    -0.8080    -0.4970 ca         1 8UN      -0.161500
      9 C14         -8.6610    -0.7740    -0.6240 ca         1 8UN      -0.041000
     10 C15         -9.3720     0.4040    -0.3300 ca         1 8UN      -0.056000
     11 C16         -8.6720     1.5480     0.0950 ca         1 8UN      -0.041000
     12 C17         -7.2720     1.5100     0.2220 ca         1 8UN      -0.161500
     13 C25          3.5240     3.9820     0.7990 c6         1 8UN      -0.071900
     14 C26          2.9350     2.6140     0.3340 c6         1 8UN      -0.076700
     15 C27          2.2310     2.7920    -1.0480 c6         1 8UN      -0.071900
     16 C29          3.7600     4.7510    -1.6280 c6         1 8UN      -0.075400
     17 C30        -10.8020     0.4380    -0.4600 cg         1 8UN       0.331000
     18 N1           0.8250    -1.3130     0.0140 nc         1 8UN      -0.539100
     19 C7           1.7730    -0.4730     0.4740 cd         1 8UN       0.465400
     20 N2           1.2680     0.7620     0.9330 na         1 8UN      -0.160600
     21 C8           3.1890    -0.8590     0.4380 ca         1 8UN      -0.084900
     22 C9           1.9760     1.9790     1.4040 c3         1 8UN       0.099300
     23 C10          2.6380     1.7190     2.7770 c3         1 8UN      -0.107100
     24 C11         -4.1330    -0.5390    -0.1920 c          1 8UN       0.627700
     25 N3          -5.1380     0.3810     0.0810 ns         1 8UN      -0.147000
     26 O1          -4.3440    -1.6430    -0.6810 o          1 8UN      -0.568100
     27 C18          3.9600    -0.5780    -0.7150 ca         1 8UN      -0.077000
     28 C19          5.3170    -0.9200    -0.7060 ca         1 8UN       0.058100
     29 C20          5.9000    -1.5210     0.3730 ca         1 8UN       0.067100
     30 C21          5.1690    -1.8290     1.5260 ca         1 8UN      -0.082000
     31 C22          3.7990    -1.4910     1.5540 ca         1 8UN       0.005100
     32 O2           7.2170    -1.7800     0.1730 os         1 8UN      -0.336100
     33 C23          7.4630    -1.1980    -1.1570 c5         1 8UN       0.374600
     34 O3           6.1910    -0.7220    -1.7250 os         1 8UN      -0.337100
     35 Br1          2.7750    -1.9230     3.1180 br         1 8UN      -0.061100
     36 C24          4.4710     4.5940    -0.2640 c6         1 8UN      -0.073900
     37 C28          3.1830     3.3990    -2.1060 c6         1 8UN      -0.073900
     38 N4         -11.9650     0.4740    -0.5600 n1         1 8UN      -0.461000
     39 H1          -3.2350     1.8930     0.9320 ha         1 8UN       0.112000
     40 H2          -0.9200     2.5340     1.4520 ha         1 8UN       0.122000
     41 H3          -1.8140    -1.9640    -0.5430 ha         1 8UN       0.153000
     42 H4          -6.7520    -1.7380    -0.7270 ha         1 8UN       0.134000
     43 H5          -9.1930    -1.6660    -0.9510 ha         1 8UN       0.125500
     44 H6          -9.2090     2.4660     0.3280 ha         1 8UN       0.125500
     45 H7          -6.7460     2.4040     0.5520 ha         1 8UN       0.134000
     46 H8           2.7090     4.6870     1.0150 hc         1 8UN       0.042200
     47 H9           4.0890     3.8630     1.7320 hc         1 8UN       0.042200
     48 H10          3.7750     1.9190     0.2120 hc         1 8UN       0.059700
     49 H11          1.8630     1.8280    -1.4250 hc         1 8UN       0.042200
     50 H12          1.3480     3.4350    -0.9350 hc         1 8UN       0.042200
     51 H13          2.9520     5.4910    -1.5430 hc         1 8UN       0.041700
     52 H14          4.4650     5.1420    -2.3740 hc         1 8UN       0.041700
     53 H15          1.2090     2.7390     1.5870 h1         1 8UN       0.061700
     54 H16          2.9120     2.6600     3.2670 hc         1 8UN       0.052367
     55 H17          1.9450     1.1950     3.4450 hc         1 8UN       0.052367
     56 H18          3.5440     1.1130     2.6690 hc         1 8UN       0.052367
     57 H19         -4.8030     1.2520     0.4690 hn         1 8UN       0.155000
     58 H20          3.5180    -0.1020    -1.5870 ha         1 8UN       0.146000
     59 H21          5.6460    -2.3160     2.3720 ha         1 8UN       0.153000
     60 H22          8.1500    -0.3500    -1.0550 h2         1 8UN       0.070700
     61 H23          7.9000    -1.9580    -1.8160 h2         1 8UN       0.070700
     62 H24          4.8350     5.5710     0.0800 hc         1 8UN       0.042200
     63 H25          5.3570     3.9550    -0.3810 hc         1 8UN       0.042200
     64 H26          4.0030     2.6980    -2.3130 hc         1 8UN       0.042200
     65 H27          2.6460     3.5390    -3.0540 hc         1 8UN       0.042200
@<TRIPOS>BOND
     1     1     2 ar  
     2     1     6 ar  
     3     1    39 1   
     4     2     3 ar  
     5     2    40 1   
     6     3     4 ar  
     7     3    20 1   
     8     4     5 ar  
     9     4    18 1   
    10     5     6 ar  
    11     5    41 1   
    12     6    24 1   
    13     7     8 ar  
    14     7    12 ar  
    15     7    25 1   
    16     8     9 ar  
    17     8    42 1   
    18     9    10 ar  
    19     9    43 1   
    20    10    11 ar  
    21    10    17 1   
    22    11    12 ar  
    23    11    44 1   
    24    12    45 1   
    25    13    14 1   
    26    13    36 1   
    27    13    46 1   
    28    13    47 1   
    29    14    15 1   
    30    14    22 1   
    31    14    48 1   
    32    15    37 1   
    33    15    49 1   
    34    15    50 1   
    35    16    36 1   
    36    16    37 1   
    37    16    51 1   
    38    16    52 1   
    39    17    38 3   
    40    18    19 2   
    41    19    20 1   
    42    19    21 1   
    43    20    22 1   
    44    21    27 ar  
    45    21    31 ar  
    46    22    23 1   
    47    22    53 1   
    48    23    54 1   
    49    23    55 1   
    50    23    56 1   
    51    24    25 1   
    52    24    26 2   
    53    25    57 1   
    54    27    28 ar  
    55    27    58 1   
    56    28    29 ar  
    57    28    34 1   
    58    29    30 ar  
    59    29    32 1   
    60    30    31 ar  
    61    30    59 1   
    62    31    35 1   
    63    32    33 1   
    64    33    34 1   
    65    33    60 1   
    66    33    61 1   
    67    36    62 1   
    68    36    63 1   
    69    37    64 1   
    70    37    65 1   
@<TRIPOS>SUBSTRUCTURE
     1 8UN         1 TEMP              0 ****  ****    0 ROOT
