@<TRIPOS>MOLECULE
8UO
   60    63     1     0     0
SMALL
No Charge or Current Charge


@<TRIPOS>ATOM
      1 C4           2.7220     0.2100     0.3080 c6         1 8UO       0.197800
      2 C14          4.0700     0.9730     0.6610 c3         1 8UO      -0.043700
      3 C5           2.8780    -0.4000    -1.1180 cc         1 8UO      -0.227300
      4 C6           3.0550    -1.7740    -1.3720 cc         1 8UO       0.473300
      5 C8           2.0810    -0.7340     2.6130 cg         1 8UO       0.321700
      6 C15          4.1090     1.6730     2.0470 c3         1 8UO      -0.086100
      7 C16          1.4200     1.1340     0.2870 ca         1 8UO      -0.016300
      8 C20          0.1210     0.5380     0.2670 ca         1 8UO      -0.169000
      9 C19         -1.0550     1.3030     0.2260 ca         1 8UO       0.351000
     10 C18          0.2890     3.3160     0.1790 ca         1 8UO       0.190000
     11 N11          3.1050    -0.9080    -3.2650 na         1 8UO      -0.008200
     12 C2           2.7320    -2.2880     0.8850 c2         1 8UO       0.405100
     13 N7           2.5930    -3.4140     1.6690 nv         1 8UO      -0.982000
     14 C3           2.5280    -1.0010     1.2770 ce         1 8UO      -0.248900
     15 O1           3.0770    -2.6840    -0.3670 os         1 8UO      -0.341400
     16 C10          2.8950     0.1680    -2.3750 cd         1 8UO      -0.085300
     17 O33         -8.0760    -1.2130     0.0300 o          1 8UO      -0.740500
     18 C31         -7.2030    -1.4030    -0.8030 c          1 8UO       0.715000
     19 O32         -7.3420    -1.1610    -1.9930 o          1 8UO      -0.740500
     20 C29         -5.8430    -1.9420    -0.3180 c3         1 8UO      -0.202400
     21 C26         -4.8850    -0.8070     0.1720 c6         1 8UO      -0.038700
     22 C25         -3.6130    -1.3940     0.8410 c6         1 8UO      -0.079400
     23 C24         -2.6610    -0.2770     1.3330 c6         1 8UO       0.200800
     24 C27         -4.4600     0.1640    -0.9640 c6         1 8UO      -0.079400
     25 C28         -3.4880     1.2550    -0.4510 c6         1 8UO       0.200800
     26 N23         -2.3080     0.6510     0.2250 nh         1 8UO      -0.787400
     27 C30         -0.9640     2.7000     0.1860 ca         1 8UO      -0.229000
     28 F21          0.3670     4.6630     0.1270 f          1 8UO      -0.196000
     29 C17          1.4650     2.5590     0.2230 ca         1 8UO      -0.215000
     30 C22          5.3460     0.1010     0.5050 c3         1 8UO      -0.086100
     31 N9           1.7230    -0.5700     3.7120 n1         1 8UO      -0.513000
     32 N12          3.2130    -2.1450    -2.6170 nd         1 8UO      -0.519800
     33 H1           4.1880     1.7720    -0.0790 hc         1 8UO       0.041700
     34 H2           1.7120     1.9530    -2.6280 hc         1 8UO       0.058367
     35 H3           3.4180     2.2620    -2.2580 hc         1 8UO       0.058367
     36 H4           2.9460     1.7270    -3.8750 hc         1 8UO       0.058367
     37 H5           4.2880     0.9500     2.8520 hc         1 8UO       0.033533
     38 H6           4.9240     2.4060     2.0800 hc         1 8UO       0.033533
     39 H7           3.1770     2.2020     2.2700 hc         1 8UO       0.033533
     40 H8           0.0350    -0.5430     0.2710 ha         1 8UO       0.127000
     41 H9           3.1780    -0.8360    -4.2800 hn         1 8UO       0.375000
     42 H10          2.7120    -3.2780     2.6700 hn         1 8UO       0.509500
     43 H11          3.0260    -4.2560     1.3000 hn         1 8UO       0.509500
     44 H13         -6.0110    -2.5830     0.5570 hc         1 8UO       0.019700
     45 H14         -5.3310    -2.4630    -1.1370 hc         1 8UO       0.019700
     46 H15         -5.4390    -0.2350     0.9310 hc         1 8UO       0.060700
     47 H16         -3.8900    -2.0310     1.6910 hc         1 8UO       0.048700
     48 H17         -3.0780    -2.0380     0.1300 hc         1 8UO       0.048700
     49 H18         -3.1480     0.2840     2.1440 h1         1 8UO       0.031200
     50 H19         -1.7600    -0.7420     1.7560 h1         1 8UO       0.031200
     51 H20         -3.9770    -0.3980    -1.7750 hc         1 8UO       0.048700
     52 H21         -5.3400     0.6530    -1.4020 hc         1 8UO       0.048700
     53 H22         -3.1670     1.8650    -1.3090 h1         1 8UO       0.031200
     54 H23         -4.0200     1.9190     0.2470 h1         1 8UO       0.031200
     55 H24         -1.8580     3.3140     0.1640 ha         1 8UO       0.135000
     56 H25          2.4100     3.0900     0.1980 ha         1 8UO       0.121000
     57 H26          5.4550    -0.2750    -0.5190 hc         1 8UO       0.033533
     58 H27          6.2440     0.6890     0.7320 hc         1 8UO       0.033533
     59 H28          5.3250    -0.7570     1.1870 hc         1 8UO       0.033533
     60 C13          2.7360     1.6030    -2.8060 c3         1 8UO      -0.034800
@<TRIPOS>BOND
     1     1     2 1   
     2     1     3 1   
     3     1     7 1   
     4     1    14 1   
     5     2     6 1   
     6     2    30 1   
     7     2    33 1   
     8     3     4 1   
     9     3    16 2   
    10     4    15 1   
    11     4    32 2   
    12     5    14 1   
    13     5    31 3   
    14     6    37 1   
    15     6    38 1   
    16     6    39 1   
    17     7     8 ar  
    18     7    29 ar  
    19     8     9 ar  
    20     8    40 1   
    21     9    26 1   
    22     9    27 ar  
    23    10    27 ar  
    24    10    28 1   
    25    10    29 ar  
    26    11    16 1   
    27    11    32 1   
    28    11    41 1   
    29    12    13 1   
    30    12    14 2   
    31    12    15 1   
    32    13    42 1   
    33    13    43 1   
    34    16    60 1   
    35    17    18 1   
    36    18    19 1   
    37    18    20 1   
    38    20    21 1   
    39    20    44 1   
    40    20    45 1   
    41    21    22 1   
    42    21    24 1   
    43    21    46 1   
    44    22    23 1   
    45    22    47 1   
    46    22    48 1   
    47    23    26 1   
    48    23    49 1   
    49    23    50 1   
    50    24    25 1   
    51    24    51 1   
    52    24    52 1   
    53    25    26 1   
    54    25    53 1   
    55    25    54 1   
    56    27    55 1   
    57    29    56 1   
    58    30    57 1   
    59    30    58 1   
    60    30    59 1   
    61    34    60 1   
    62    35    60 1   
    63    36    60 1   
@<TRIPOS>SUBSTRUCTURE
     1 8UO         1 TEMP              0 ****  ****    0 ROOT
