@<TRIPOS>MOLECULE
8UO
   60    63     1     0     0
SMALL
abcg2


@<TRIPOS>ATOM
      1 C4           2.7030     0.2500     0.3050 c6         1 8UO       0.197800
      2 C14          3.9790     1.0530     0.6990 c3         1 8UO      -0.043700
      3 C5           2.8890    -0.3620    -1.0520 cc         1 8UO      -0.227300
      4 C6           3.1120    -1.7210    -1.2440 cc         1 8UO       0.473300
      5 C8           1.9340    -0.6890     2.5240 cg         1 8UO       0.321700
      6 C15          3.9230     1.6450     2.1060 c3         1 8UO      -0.086100
      7 C16          1.4390     1.1200     0.2550 ca         1 8UO      -0.016300
      8 C20          0.2070     0.4870     0.2020 ca         1 8UO      -0.169000
      9 C19         -1.0010     1.1920     0.0950 ca         1 8UO       0.351000
     10 C18          0.3020     3.1950     0.0570 ca         1 8UO       0.190000
     11 N11          3.1680    -0.9060    -3.1380 na         1 8UO      -0.008200
     12 C2           2.7700    -2.2390     0.9580 c2         1 8UO       0.405100
     13 N7           2.6780    -3.2640     1.8100 nv         1 8UO      -0.982000
     14 C3           2.4850    -0.9280     1.2530 ce         1 8UO      -0.248900
     15 O1           3.1600    -2.6490    -0.2590 os         1 8UO      -0.341400
     16 C10          2.9310     0.1490    -2.3370 cd         1 8UO      -0.085300
     17 O33         -7.5930    -0.2330     0.2050 o          1 8UO      -0.740500
     18 C31         -7.2730    -1.1900    -0.5280 c          1 8UO       0.715000
     19 O32         -8.0090    -1.7530    -1.3660 o          1 8UO      -0.740500
     20 C29         -5.8580    -1.7730    -0.3620 c3         1 8UO      -0.202400
     21 C26         -4.8030    -0.8220     0.1820 c6         1 8UO      -0.038700
     22 C25         -3.4900    -1.5450     0.4630 c6         1 8UO      -0.079400
     23 C24         -2.4230    -0.5890     0.9670 c6         1 8UO       0.200800
     24 C27         -4.5190     0.3360    -0.7670 c6         1 8UO      -0.079400
     25 C28         -3.4180     1.2520    -0.2530 c6         1 8UO       0.200800
     26 N23         -2.2050     0.5070     0.0280 nh         1 8UO      -0.787400
     27 C30         -0.9360     2.5900     0.0270 ca         1 8UO      -0.229000
     28 F21          0.3470     4.5390    -0.0130 f          1 8UO      -0.196000
     29 C17          1.4930     2.5110     0.1750 ca         1 8UO      -0.215000
     30 C22          5.2500     0.2210     0.5610 c3         1 8UO      -0.086100
     31 N9           1.4560    -0.5220     3.5660 n1         1 8UO      -0.513000
     32 N12          3.2820    -2.0700    -2.4920 nd         1 8UO      -0.519800
     33 H1           4.0630     1.8740    -0.0200 hc         1 8UO       0.041700
     34 H2           1.7210     1.8660    -2.6980 hc         1 8UO       0.058367
     35 H3           3.4050     2.2320    -2.3630 hc         1 8UO       0.058367
     36 H4           2.9480     1.5710    -3.9310 hc         1 8UO       0.058367
     37 H5           4.0730     0.8760     2.8650 hc         1 8UO       0.033533
     38 H6           4.7220     2.3770     2.2290 hc         1 8UO       0.033533
     39 H7           2.9820     2.1510     2.3220 hc         1 8UO       0.033533
     40 H8           0.1870    -0.5950     0.2110 ha         1 8UO       0.127000
     41 H9           3.2530    -0.8890    -4.1420 hn         1 8UO       0.375000
     42 H10          2.5810    -3.1140     2.7990 hn         1 8UO       0.509500
     43 H11          2.8710    -4.2020     1.5020 hn         1 8UO       0.509500
     44 H13         -5.9390    -2.6310     0.3180 hc         1 8UO       0.019700
     45 H14         -5.5200    -2.1900    -1.3170 hc         1 8UO       0.019700
     46 H15         -5.1680    -0.4040     1.1280 hc         1 8UO       0.060700
     47 H16         -3.6360    -2.3310     1.2080 hc         1 8UO       0.048700
     48 H17         -3.1320    -2.0320    -0.4510 hc         1 8UO       0.048700
     49 H18         -2.7240    -0.1880     1.9460 h1         1 8UO       0.031200
     50 H19         -1.4940    -1.1320     1.1260 h1         1 8UO       0.031200
     51 H20         -4.2230    -0.0600    -1.7450 hc         1 8UO       0.048700
     52 H21         -5.4210     0.9310    -0.9210 hc         1 8UO       0.048700
     53 H22         -3.2100     2.0060    -1.0130 h1         1 8UO       0.031200
     54 H23         -3.7730     1.7860     0.6430 h1         1 8UO       0.031200
     55 H24         -1.8200     3.2090    -0.0280 ha         1 8UO       0.135000
     56 H25          2.4180     3.0700     0.2020 ha         1 8UO       0.121000
     57 H26          5.4120    -0.1320    -0.4570 hc         1 8UO       0.033533
     58 H27          6.1160     0.8240     0.8370 hc         1 8UO       0.033533
     59 H28          5.2350    -0.6450     1.2270 hc         1 8UO       0.033533
     60 C13          2.7430     1.5250    -2.8620 c3         1 8UO      -0.034800
@<TRIPOS>BOND
     1     1     2 1   
     2     1     3 1   
     3     1     7 1   
     4     1    14 1   
     5     2     6 1   
     6     2    30 1   
     7     2    33 1   
     8     3     4 1   
     9     3    16 2   
    10     4    15 1   
    11     4    32 2   
    12     5    14 1   
    13     5    31 3   
    14     6    37 1   
    15     6    38 1   
    16     6    39 1   
    17     7     8 ar  
    18     7    29 ar  
    19     8     9 ar  
    20     8    40 1   
    21     9    26 1   
    22     9    27 ar  
    23    10    27 ar  
    24    10    28 1   
    25    10    29 ar  
    26    11    16 1   
    27    11    32 1   
    28    11    41 1   
    29    12    13 1   
    30    12    14 2   
    31    12    15 1   
    32    13    42 1   
    33    13    43 1   
    34    16    60 1   
    35    17    18 1   
    36    18    19 1   
    37    18    20 1   
    38    20    21 1   
    39    20    44 1   
    40    20    45 1   
    41    21    22 1   
    42    21    24 1   
    43    21    46 1   
    44    22    23 1   
    45    22    47 1   
    46    22    48 1   
    47    23    26 1   
    48    23    49 1   
    49    23    50 1   
    50    24    25 1   
    51    24    51 1   
    52    24    52 1   
    53    25    26 1   
    54    25    53 1   
    55    25    54 1   
    56    27    55 1   
    57    29    56 1   
    58    30    57 1   
    59    30    58 1   
    60    30    59 1   
    61    34    60 1   
    62    35    60 1   
    63    36    60 1   
@<TRIPOS>SUBSTRUCTURE
     1 8UO         1 TEMP              0 ****  ****    0 ROOT
