@<TRIPOS>MOLECULE
8UP
   37    38     1     0     0
SMALL
No Charge or Current Charge


@<TRIPOS>ATOM
      1 Br          -5.2370    -0.7280    -0.1170 br         1 8UP      -0.266000
      2 C14         -3.8110     0.6570    -0.2380 c3         1 8UP       0.090600
      3 C13         -2.4090     0.0290    -0.1350 c3         1 8UP      -0.083400
      4 C12         -1.2850     1.0760    -0.2250 c3         1 8UP       0.159600
      5 O2          -0.0350     0.3740    -0.1170 os         1 8UP      -0.348100
      6 C11          1.2280     0.9660    -0.1550 ca         1 8UP       0.065100
      7 C2           1.4540     2.3730    -0.3050 ca         1 8UP       0.121100
      8 O1           0.3920     3.2550    -0.4280 os         1 8UP      -0.329100
      9 C1           0.5590     4.6760    -0.5810 c3         1 8UP       0.145900
     10 C10          2.3420     0.0920    -0.0330 ca         1 8UP      -0.019000
     11 C5           3.6560     0.6080    -0.0590 ca         1 8UP      -0.053000
     12 C4           3.8690     1.9860    -0.2060 ca         1 8UP      -0.068000
     13 C3           2.7820     2.8600    -0.3290 ca         1 8UP      -0.167000
     14 C9           2.1620    -1.3050     0.1180 ca         1 8UP      -0.075000
     15 C8           3.2660    -2.1840     0.2250 ca         1 8UP      -0.188900
     16 C15          3.0590    -3.6520     0.4260 ce         1 8UP       0.657800
     17 N2           3.9830    -4.4910    -0.0740 nv         1 8UP      -1.032200
     18 N1           1.9990    -4.1510     0.9110 n2         1 8UP      -0.842100
     19 C7           4.5680    -1.6350     0.2140 ca         1 8UP      -0.094000
     20 C6           4.7590    -0.2540     0.0670 ca         1 8UP      -0.093000
     21 H14         -3.9430     1.1670    -1.2010 h1         1 8UP       0.070200
     22 H13         -3.9860     1.3660     0.5810 h1         1 8UP       0.070200
     23 H12         -2.3250    -0.5090     0.8170 hc         1 8UP       0.070200
     24 H11         -2.2830    -0.7050    -0.9390 hc         1 8UP       0.070200
     25 H9          -1.3570     1.6010    -1.1870 h1         1 8UP       0.033200
     26 H10         -1.3990     1.8000     0.5930 h1         1 8UP       0.033200
     27 H2           1.0840     5.1030     0.2820 h1         1 8UP       0.043033
     28 H3           1.1250     4.9070    -1.4920 h1         1 8UP       0.043033
     29 H1          -0.4200     5.1660    -0.6580 h1         1 8UP       0.043033
     30 H5           4.8820     2.3840    -0.2260 ha         1 8UP       0.118000
     31 H4           2.9960     3.9180    -0.4410 ha         1 8UP       0.120000
     32 H8           1.1560    -1.7170     0.1320 ha         1 8UP       0.131000
     33 H17          4.5520    -4.1090    -0.8190 hn         1 8UP       0.468500
     34 H15          3.6530    -5.4390    -0.2090 hn         1 8UP       0.468500
     35 H16          1.4380    -3.3800     1.2970 hn         1 8UP       0.392400
     36 H7           5.4400    -2.2760     0.3320 ha         1 8UP       0.126000
     37 H6           5.7700     0.1470     0.0570 ha         1 8UP       0.116000
@<TRIPOS>BOND
     1     1     2 1   
     2     2     3 1   
     3     2    21 1   
     4     2    22 1   
     5     3     4 1   
     6     3    23 1   
     7     3    24 1   
     8     4     5 1   
     9     4    25 1   
    10     4    26 1   
    11     5     6 1   
    12     6     7 ar  
    13     6    10 ar  
    14     7     8 1   
    15     7    13 ar  
    16     8     9 1   
    17     9    27 1   
    18     9    28 1   
    19     9    29 1   
    20    10    11 ar  
    21    10    14 ar  
    22    11    12 ar  
    23    11    20 ar  
    24    12    13 ar  
    25    12    30 1   
    26    13    31 1   
    27    14    15 ar  
    28    14    32 1   
    29    15    16 1   
    30    15    19 ar  
    31    16    17 1   
    32    16    18 2   
    33    17    33 1   
    34    17    34 1   
    35    18    35 1   
    36    19    20 ar  
    37    19    36 1   
    38    20    37 1   
@<TRIPOS>SUBSTRUCTURE
     1 8UP         1 TEMP              0 ****  ****    0 ROOT
