@<TRIPOS>MOLECULE
8UP
   37    38     1     0     0
SMALL
bcc


@<TRIPOS>ATOM
      1 BR          -4.8950    -0.9040    -0.2050 br         1 8UP      -0.183400
      2 C14         -3.2630    -0.0510    -0.8960 c3         1 8UP       0.008000
      3 C13         -2.2080     0.0660     0.1840 c3         1 8UP      -0.083400
      4 C12         -0.9620     0.7240    -0.3840 c3         1 8UP       0.136400
      5 O2          -0.0210     0.8530     0.6800 os         1 8UP      -0.324900
      6 C11          1.2220     1.2560     0.3050 ca         1 8UP       0.065100
      7 C2           1.4910     2.6000     0.1180 ca         1 8UP       0.121100
      8 O1           0.4690     3.4500     0.3070 os         1 8UP      -0.305900
      9 C1           0.6830     4.8340     0.1000 c3         1 8UP       0.122700
     10 C10          2.2350     0.2870     0.1310 ca         1 8UP      -0.019000
     11 C5           3.5420     0.7040    -0.2330 ca         1 8UP      -0.053000
     12 C4           3.7890     2.0790    -0.4180 ca         1 8UP      -0.086000
     13 C3           2.7950     3.0040    -0.2450 ca         1 8UP      -0.185000
     14 C9           1.9880    -1.0920     0.3280 ca         1 8UP      -0.093000
     15 C8           2.9830    -2.0200     0.1540 ca         1 8UP      -0.188900
     16 C15          2.6890    -3.4640     0.3830 ce         1 8UP       0.657800
     17 N2           3.3520    -4.3190    -0.4440 nv         1 8UP      -0.921800
     18 N1           1.9150    -3.9120     1.2970 n2         1 8UP      -0.842100
     19 C7           4.2820    -1.5990    -0.2250 ca         1 8UP      -0.112000
     20 C6           4.5500    -0.2730    -0.4050 ca         1 8UP      -0.111000
     21 H14         -2.9280    -0.6650    -1.7310 h1         1 8UP       0.070200
     22 H13         -3.5670     0.9240    -1.2760 h1         1 8UP       0.070200
     23 H12         -2.5860     0.6640     1.0160 hc         1 8UP       0.070200
     24 H11         -1.9530    -0.9230     0.5700 hc         1 8UP       0.070200
     25 H9          -0.5410     0.1130    -1.1900 h1         1 8UP       0.033200
     26 H10         -1.2040     1.7070    -0.8010 h1         1 8UP       0.033200
     27 H2           1.4300     5.2400     0.7860 h1         1 8UP       0.043033
     28 H3           0.9870     5.0510    -0.9260 h1         1 8UP       0.043033
     29 H1          -0.2690     5.3220     0.2940 h1         1 8UP       0.043033
     30 H5           4.7820     2.4070    -0.6990 ha         1 8UP       0.136000
     31 H4           3.0240     4.0510    -0.3920 ha         1 8UP       0.138000
     32 H8           0.9940    -1.4160     0.6050 ha         1 8UP       0.149000
     33 H17          3.5980    -3.9980    -1.3660 hn         1 8UP       0.413300
     34 H15          3.0700    -5.2860    -0.4050 hn         1 8UP       0.413300
     35 H16          1.5900    -3.1570     1.8900 hn         1 8UP       0.392400
     36 H7           5.0710    -2.3290    -0.3490 ha         1 8UP       0.144000
     37 H6           5.5480     0.0480    -0.6780 ha         1 8UP       0.134000
@<TRIPOS>BOND
     1     1     2 1   
     2     2     3 1   
     3     2    21 1   
     4     2    22 1   
     5     3     4 1   
     6     3    23 1   
     7     3    24 1   
     8     4     5 1   
     9     4    25 1   
    10     4    26 1   
    11     5     6 1   
    12     6     7 ar  
    13     6    10 ar  
    14     7     8 1   
    15     7    13 ar  
    16     8     9 1   
    17     9    27 1   
    18     9    28 1   
    19     9    29 1   
    20    10    11 ar  
    21    10    14 ar  
    22    11    12 ar  
    23    11    20 ar  
    24    12    13 ar  
    25    12    30 1   
    26    13    31 1   
    27    14    15 ar  
    28    14    32 1   
    29    15    16 1   
    30    15    19 ar  
    31    16    17 1   
    32    16    18 2   
    33    17    33 1   
    34    17    34 1   
    35    18    35 1   
    36    19    20 ar  
    37    19    36 1   
    38    20    37 1   
@<TRIPOS>SUBSTRUCTURE
     1 8UP         1 TEMP              0 ****  ****    0 ROOT
