@<TRIPOS>MOLECULE
8UR
   63    66     1     0     0
SMALL
No Charge or Current Charge


@<TRIPOS>ATOM
      1 C4           4.8540     1.3050     0.2870 c6         1 8UR      -0.039700
      2 C7           5.8200     2.4620    -0.1320 c3         1 8UR      -0.202400
      3 C6           3.4660    -0.7220    -0.4600 c6         1 8UR       0.201800
      4 C8           7.1870     1.9450    -0.6230 c          1 8UR       0.715000
      5 C2           2.6130     0.7200     1.3850 c6         1 8UR       0.201800
      6 C3           3.5720     1.8590     0.9650 c6         1 8UR      -0.078400
      7 C5           4.4460     0.3920    -0.9030 c6         1 8UR      -0.078400
      8 N1           2.2760    -0.1500     0.2270 nh         1 8UR      -0.791400
      9 F35          0.6930    -5.0090     0.1660 f          1 8UR      -0.120000
     10 F33         -0.8110    -4.7080    -1.3750 f          1 8UR      -0.120000
     11 F34         -1.4020    -4.8670     0.7110 f          1 8UR      -0.120000
     12 C28         -0.3390    -2.8360     0.0240 ca         1 8UR      -0.167300
     13 C27         -1.5050    -2.0450     0.0790 ca         1 8UR      -0.122000
     14 C36          0.9200    -2.2000     0.0770 ca         1 8UR      -0.140000
     15 C29          1.0190    -0.8010     0.1820 ca         1 8UR       0.324000
     16 O10          8.0470     1.7120     0.2130 o          1 8UR      -0.739500
     17 O9           7.3440     1.7630    -1.8200 o          1 8UR      -0.739500
     18 C30         -0.1570    -0.0370     0.2380 ca         1 8UR      -0.127000
     19 C26         -1.4340    -0.6380     0.2070 ca         1 8UR      -0.046300
     20 C14         -2.6860     0.2840     0.2390 c6         1 8UR       0.197800
     21 C24         -4.0640    -0.4540     0.5270 c3         1 8UR      -0.043700
     22 C32         -4.1500    -1.2060     1.8850 c3         1 8UR      -0.087100
     23 C25         -5.3120     0.4610     0.3860 c3         1 8UR      -0.087100
     24 C13         -2.4880     1.4580     1.3380 ce         1 8UR      -0.242900
     25 C18         -2.0860     1.1510     2.7080 cg         1 8UR       0.315700
     26 N19         -1.7340     0.9430     3.8000 n1         1 8UR      -0.507000
     27 C12         -2.6590     2.7790     1.0190 c2         1 8UR       0.393100
     28 N17         -2.5290     3.8590     1.8610 nv         1 8UR      -0.966000
     29 C15         -2.7890     0.9730    -1.1100 cc         1 8UR      -0.232300
     30 C20         -2.7840     0.4720    -2.3830 cd         1 8UR      -0.082300
     31 C23         -2.6430    -0.9400    -2.8930 c3         1 8UR      -0.036800
     32 N21         -2.9470     1.6010    -3.2140 na         1 8UR      -0.008200
     33 N22         -3.0450     2.7990    -2.4940 nd         1 8UR      -0.517800
     34 C16         -2.9290     2.3510    -1.2670 cc         1 8UR       0.471300
     35 O11         -2.9570     3.2240    -0.2250 os         1 8UR      -0.336400
     36 H1           5.3960     0.6950     1.0240 hc         1 8UR       0.061700
     37 H2           5.3210     3.0230    -0.9310 hc         1 8UR       0.019200
     38 H3           5.9750     3.0580     0.7760 hc         1 8UR       0.019200
     39 H4           3.1570    -1.2880    -1.3510 h1         1 8UR       0.030450
     40 H5           3.9860    -1.4200     0.2130 h1         1 8UR       0.030450
     41 H6           3.0870     0.1190     2.1750 h1         1 8UR       0.030450
     42 H7           1.7050     1.1650     1.8170 h1         1 8UR       0.030450
     43 H8           3.8370     2.4530     1.8500 hc         1 8UR       0.048950
     44 H9           3.0490     2.5390     0.2780 hc         1 8UR       0.048950
     45 H10          3.9770     0.9940    -1.6920 hc         1 8UR       0.048950
     46 H11          5.3330    -0.0760    -1.3510 hc         1 8UR       0.048950
     47 H12         -2.4650    -2.5470     0.0070 ha         1 8UR       0.121000
     48 H13          1.8280    -2.7940     0.0380 ha         1 8UR       0.133000
     49 H15         -0.0710     1.0440     0.2870 ha         1 8UR       0.126000
     50 H16         -4.1940    -1.2170    -0.2480 hc         1 8UR       0.041700
     51 H17         -4.9850    -1.9170     1.8730 hc         1 8UR       0.034867
     52 H18         -3.2370    -1.7680     2.1070 hc         1 8UR       0.034867
     53 H19         -4.3270    -0.5090     2.7120 hc         1 8UR       0.034867
     54 H20         -5.3930     0.8780    -0.6240 hc         1 8UR       0.034867
     55 H21         -6.2300    -0.1090     0.5750 hc         1 8UR       0.034867
     56 H22         -5.2770     1.2910     1.1010 hc         1 8UR       0.034867
     57 H23         -1.9490     3.7210     2.6840 hn         1 8UR       0.501500
     58 H24         -2.4160     4.7600     1.4030 hn         1 8UR       0.501500
     59 H25         -3.3470    -1.6170    -2.3990 hc         1 8UR       0.059367
     60 H26         -2.8340    -0.9970    -3.9710 hc         1 8UR       0.059367
     61 H27         -1.6290    -1.3190    -2.7180 hc         1 8UR       0.059367
     62 H28         -2.9930     1.5910    -4.2320 hn         1 8UR       0.376000
     63 C31         -0.4600    -4.3590    -0.1160 c3         1 8UR       0.351300
@<TRIPOS>BOND
     1     1     2 1   
     2     1     6 1   
     3     1     7 1   
     4     1    36 1   
     5     2     4 1   
     6     2    37 1   
     7     2    38 1   
     8     3     7 1   
     9     3     8 1   
    10     3    39 1   
    11     3    40 1   
    12     4    16 1   
    13     4    17 1   
    14     5     6 1   
    15     5     8 1   
    16     5    41 1   
    17     5    42 1   
    18     6    43 1   
    19     6    44 1   
    20     7    45 1   
    21     7    46 1   
    22     8    15 1   
    23     9    63 1   
    24    10    63 1   
    25    11    63 1   
    26    12    13 ar  
    27    12    14 ar  
    28    12    63 1   
    29    13    19 ar  
    30    13    47 1   
    31    14    15 ar  
    32    14    48 1   
    33    15    18 ar  
    34    18    19 ar  
    35    18    49 1   
    36    19    20 1   
    37    20    21 1   
    38    20    24 1   
    39    20    29 1   
    40    21    22 1   
    41    21    23 1   
    42    21    50 1   
    43    22    51 1   
    44    22    52 1   
    45    22    53 1   
    46    23    54 1   
    47    23    55 1   
    48    23    56 1   
    49    24    25 1   
    50    24    27 2   
    51    25    26 3   
    52    27    28 1   
    53    27    35 1   
    54    28    57 1   
    55    28    58 1   
    56    29    30 2   
    57    29    34 1   
    58    30    31 1   
    59    30    32 1   
    60    31    59 1   
    61    31    60 1   
    62    31    61 1   
    63    32    33 1   
    64    32    62 1   
    65    33    34 2   
    66    34    35 1   
@<TRIPOS>SUBSTRUCTURE
     1 8UR         1 TEMP              0 ****  ****    0 ROOT
