@<TRIPOS>MOLECULE
8UR
   63    66     1     0     0
SMALL
bcc


@<TRIPOS>ATOM
      1 C4           4.8050     1.2970     0.2290 c6         1 8UR      -0.039700
      2 C7           5.8490     2.2590    -0.3210 c3         1 8UR      -0.202400
      3 C6           3.4290    -0.7820    -0.2180 c6         1 8UR       0.201800
      4 C8           7.2600     1.6730    -0.5110 c          1 8UR       0.925600
      5 C2           2.4330     1.0410     1.0270 c6         1 8UR       0.201800
      6 C3           3.4910     2.0090     0.5280 c6         1 8UR      -0.078400
      7 C5           4.5250     0.1440    -0.7270 c6         1 8UR      -0.078400
      8 N1           2.2160    -0.0400     0.0720 nh         1 8UR      -0.653000
      9 F35          0.6770    -4.8380     0.4250 f          1 8UR      -0.241300
     10 F33         -0.4200    -4.5890    -1.4060 f          1 8UR      -0.241300
     11 F34         -1.4700    -4.7470     0.4620 f          1 8UR      -0.241300
     12 C28         -0.3170    -2.7330     0.0340 ca         1 8UR      -0.167300
     13 C27         -1.4960    -2.0090     0.1310 ca         1 8UR      -0.140000
     14 C36          0.9230    -2.1120     0.0330 ca         1 8UR      -0.158000
     15 C29          1.0060    -0.7170     0.1130 ca         1 8UR       0.185600
     16 O10          7.6200     0.7810     0.2830 o          1 8UR      -0.844800
     17 O9           7.9500     2.1660    -1.4270 o          1 8UR      -0.844800
     18 C30         -0.1950    -0.0040     0.2040 ca         1 8UR      -0.145000
     19 C26         -1.4350    -0.6220     0.2290 ca         1 8UR      -0.046300
     20 C14         -2.6830     0.2710     0.2830 c6         1 8UR       0.197800
     21 C24         -3.9930    -0.5220     0.5660 c3         1 8UR      -0.043700
     22 C32         -4.0290    -1.1780     1.9450 c3         1 8UR      -0.087100
     23 C25         -5.2380     0.3440     0.4020 c3         1 8UR      -0.087100
     24 C13         -2.4750     1.3720     1.3230 ce         1 8UR      -0.242900
     25 C18         -1.9530     1.0270     2.5820 cg         1 8UR       0.226500
     26 N19         -1.5000     0.7520     3.6120 n1         1 8UR      -0.417800
     27 C12         -2.7490     2.7020     1.1230 c2         1 8UR       0.393100
     28 N17         -2.7420     3.6540     2.0650 nv         1 8UR      -0.855600
     29 C15         -2.7950     0.9880    -1.0300 cc         1 8UR      -0.297600
     30 C20         -2.7750     0.5790    -2.3510 cd         1 8UR      -0.031600
     31 C23         -2.5900    -0.7560    -2.9760 c3         1 8UR      -0.036800
     32 N21         -2.9670     1.6950    -3.0770 na         1 8UR      -0.008600
     33 N22         -3.1060     2.8070    -2.3480 nd         1 8UR      -0.517800
     34 C16         -3.0010     2.3590    -1.1250 cc         1 8UR       0.536600
     35 O11         -3.0950     3.2070    -0.0720 os         1 8UR      -0.336400
     36 H1           5.1850     0.8760     1.1680 hc         1 8UR       0.061700
     37 H2           5.4960     2.6840    -1.2660 hc         1 8UR       0.019200
     38 H3           5.9390     3.1080     0.3700 hc         1 8UR       0.019200
     39 H4           3.2210    -1.5290    -0.9850 h1         1 8UR       0.030450
     40 H5           3.7880    -1.3230     0.6720 h1         1 8UR       0.030450
     41 H6           2.7450     0.6250     1.9980 h1         1 8UR       0.030450
     42 H7           1.5030     1.5750     1.2040 h1         1 8UR       0.030450
     43 H8           3.6390     2.7870     1.2820 hc         1 8UR       0.048950
     44 H9           3.1220     2.5060    -0.3760 hc         1 8UR       0.048950
     45 H10          4.2250     0.5440    -1.7020 hc         1 8UR       0.048950
     46 H11          5.4300    -0.4460    -0.8860 hc         1 8UR       0.048950
     47 H12         -2.4440    -2.5270     0.1300 ha         1 8UR       0.139000
     48 H13          1.8210    -2.7120    -0.0100 ha         1 8UR       0.151000
     49 H15         -0.1630     1.0780     0.2320 ha         1 8UR       0.144000
     50 H16         -4.0560    -1.3060    -0.1970 hc         1 8UR       0.041700
     51 H17         -4.8620    -1.8800     1.9950 hc         1 8UR       0.034867
     52 H18         -3.1220    -1.7320     2.1870 hc         1 8UR       0.034867
     53 H19         -4.1860    -0.4360     2.7290 hc         1 8UR       0.034867
     54 H20         -5.3470     0.7340    -0.6090 hc         1 8UR       0.034867
     55 H21         -6.1280    -0.2480     0.6180 hc         1 8UR       0.034867
     56 H22         -5.2350     1.1870     1.0970 hc         1 8UR       0.034867
     57 H23         -2.4630     3.4260     3.0040 hn         1 8UR       0.446300
     58 H24         -2.6170     4.6160     1.7910 hn         1 8UR       0.446300
     59 H25         -3.4080    -1.4310    -2.7210 hc         1 8UR       0.059367
     60 H26         -2.5500    -0.6790    -4.0610 hc         1 8UR       0.059367
     61 H27         -1.6640    -1.2180    -2.6350 hc         1 8UR       0.059367
     62 H28         -2.9990     1.7600    -4.0820 hn         1 8UR       0.325700
     63 C31         -0.3820    -4.2210    -0.1140 c3         1 8UR       0.715200
@<TRIPOS>BOND
     1     1     2 1   
     2     1     6 1   
     3     1     7 1   
     4     1    36 1   
     5     2     4 1   
     6     2    37 1   
     7     2    38 1   
     8     3     7 1   
     9     3     8 1   
    10     3    39 1   
    11     3    40 1   
    12     4    16 1   
    13     4    17 1   
    14     5     6 1   
    15     5     8 1   
    16     5    41 1   
    17     5    42 1   
    18     6    43 1   
    19     6    44 1   
    20     7    45 1   
    21     7    46 1   
    22     8    15 1   
    23     9    63 1   
    24    10    63 1   
    25    11    63 1   
    26    12    13 ar  
    27    12    14 ar  
    28    12    63 1   
    29    13    19 ar  
    30    13    47 1   
    31    14    15 ar  
    32    14    48 1   
    33    15    18 ar  
    34    18    19 ar  
    35    18    49 1   
    36    19    20 1   
    37    20    21 1   
    38    20    24 1   
    39    20    29 1   
    40    21    22 1   
    41    21    23 1   
    42    21    50 1   
    43    22    51 1   
    44    22    52 1   
    45    22    53 1   
    46    23    54 1   
    47    23    55 1   
    48    23    56 1   
    49    24    25 1   
    50    24    27 2   
    51    25    26 3   
    52    27    28 1   
    53    27    35 1   
    54    28    57 1   
    55    28    58 1   
    56    29    30 2   
    57    29    34 1   
    58    30    31 1   
    59    30    32 1   
    60    31    59 1   
    61    31    60 1   
    62    31    61 1   
    63    32    33 1   
    64    32    62 1   
    65    33    34 2   
    66    34    35 1   
@<TRIPOS>SUBSTRUCTURE
     1 8UR         1 TEMP              0 ****  ****    0 ROOT
