@<TRIPOS>MOLECULE
8US
   43    46     1     0     0
SMALL
No Charge or Current Charge


@<TRIPOS>ATOM
      1 C7          -2.2360    -1.1630     0.1520 ca         1 8US       0.163000
      2 C6          -2.3780     1.4400     1.2690 ca         1 8US       0.038200
      3 C1           2.0480    -1.7160     0.8950 cc         1 8US      -0.289000
      4 C5          -2.2010     1.2740    -0.1170 ca         1 8US      -0.180600
      5 C4          -2.4940     0.3100     2.0930 ca         1 8US      -0.166000
      6 C3          -2.1390    -0.0230    -0.6710 ca         1 8US       0.005000
      7 C2           1.0000    -2.5920     0.5100 cc         1 8US       0.078000
      8 C8          -2.4250    -0.9790     1.5410 ca         1 8US       0.184000
      9 C9           2.2460    -0.6860     0.0160 cd         1 8US       0.276000
     10 C10          0.3920    -2.2290    -0.6660 cd         1 8US      -0.547500
     11 C11         -2.4450     2.7770     1.8560 cc         1 8US      -0.274200
     12 C12         -2.3280     3.8730     1.0220 cd         1 8US      -0.027400
     13 C13         -2.0770     2.4840    -0.9910 c          1 8US       0.572600
     14 C14          4.5790     1.9330     1.1630 c5         1 8US      -0.135400
     15 C15          4.1340     0.4520     1.2900 c5         1 8US       0.228800
     16 C16          3.4120     1.4020    -0.8780 c5         1 8US       0.216800
     17 C17          4.7140     2.1180    -0.3740 c5         1 8US       0.158300
     18 N18         -2.1520     3.6910    -0.3410 ns         1 8US      -0.386100
     19 N19          3.1970     0.3390     0.1480 nh         1 8US      -0.794400
     20 N20         -2.1430    -2.4570    -0.3910 nu         1 8US      -0.834100
     21 O21         -1.9170     2.4230    -2.2000 o          1 8US      -0.531000
     22 O22         -1.2710    -2.4840    -2.7400 o          1 8US      -0.532000
     23 O23         -0.9430    -4.4800    -1.1310 o          1 8US      -0.532000
     24 O24          5.9210     1.5230    -0.8750 oh         1 8US      -0.647000
     25 F25         -2.5270    -2.0510     2.3630 f          1 8US      -0.173000
     26 S26          1.1260    -0.7790    -1.3700 ss         1 8US       0.262000
     27 S27         -0.9630    -3.0470    -1.4250 sy         1 8US       1.183600
     28 H2          -2.6330     0.4250     3.1640 ha         1 8US       0.136000
     29 H3          -2.0140    -0.1470    -1.7430 ha         1 8US       0.172000
     30 H4           0.7140    -3.4530     1.1100 ha         1 8US       0.143000
     31 H5          -2.5830     2.9240     2.9240 ha         1 8US       0.200000
     32 H6          -2.3630     4.9100     1.3510 h4         1 8US       0.200000
     33 H7           3.8130     2.6030     1.5700 hc         1 8US       0.061700
     34 H8           5.5080     2.1380     1.7060 hc         1 8US       0.061700
     35 H9           4.9810    -0.2390     1.1770 h1         1 8US       0.058700
     36 H10          3.6520     0.2560     2.2580 h1         1 8US       0.058700
     37 H11          2.5660     2.1020    -0.9030 h1         1 8US       0.068700
     38 H12          3.5450     0.9930    -1.8890 h1         1 8US       0.068700
     39 H13          4.6920     3.1830    -0.6450 h1         1 8US       0.053700
     40 H14         -2.0660     4.4960    -0.9510 hn         1 8US       0.330500
     41 H15         -2.2500    -3.2100     0.2750 hn         1 8US       0.487000
     42 H16          6.6690     2.0240    -0.4820 ho         1 8US       0.448000
     43 H1           2.6160    -1.8640     1.8040 ha         1 8US       0.137000
@<TRIPOS>BOND
     1     1     6 ar  
     2     1     8 ar  
     3     1    20 1   
     4     2     4 ar  
     5     2     5 ar  
     6     2    11 1   
     7     3     7 1   
     8     3     9 2   
     9     3    43 1   
    10     4     6 ar  
    11     4    13 1   
    12     5     8 ar  
    13     5    28 1   
    14     6    29 1   
    15     7    10 2   
    16     7    30 1   
    17     8    25 1   
    18     9    19 1   
    19     9    26 1   
    20    10    26 1   
    21    10    27 1   
    22    11    12 2   
    23    11    31 1   
    24    12    18 1   
    25    12    32 1   
    26    13    18 1   
    27    13    21 2   
    28    14    15 1   
    29    14    17 1   
    30    14    33 1   
    31    14    34 1   
    32    15    19 1   
    33    15    35 1   
    34    15    36 1   
    35    16    17 1   
    36    16    19 1   
    37    16    37 1   
    38    16    38 1   
    39    17    24 1   
    40    17    39 1   
    41    18    40 1   
    42    20    27 1   
    43    20    41 1   
    44    22    27 2   
    45    23    27 2   
    46    24    42 1   
@<TRIPOS>SUBSTRUCTURE
     1 8US         1 TEMP              0 ****  ****    0 ROOT
