@<TRIPOS>MOLECULE
8US
   43    46     1     0     0
SMALL
abcg2


@<TRIPOS>ATOM
      1 C7          -2.1690    -1.0500     0.1160 ca         1 8US       0.163000
      2 C6          -1.8140     1.6170     0.9310 ca         1 8US       0.038200
      3 C1           2.2400    -2.0580     0.8000 cc         1 8US      -0.289000
      4 C5          -2.4000     1.3120    -0.3120 ca         1 8US      -0.180600
      5 C4          -1.4280     0.5650     1.7750 ca         1 8US      -0.166000
      6 C3          -2.5770    -0.0180    -0.7000 ca         1 8US       0.005000
      7 C2           1.2130    -2.8770     0.3190 cc         1 8US       0.078000
      8 C8          -1.6000    -0.7240     1.3560 ca         1 8US       0.184000
      9 C9           2.2570    -0.8120     0.1770 cd         1 8US       0.276000
     10 C10          0.4760    -2.2970    -0.6810 cd         1 8US      -0.547500
     11 C11         -1.6310     2.9860     1.3020 cc         1 8US      -0.274200
     12 C12         -2.0240     3.9480     0.4470 cd         1 8US      -0.027400
     13 C13         -2.8280     2.3780    -1.2200 c          1 8US       0.572600
     14 C14          4.4660     1.6650     1.5740 c5         1 8US      -0.135400
     15 C15          4.1040     0.1910     1.4370 c5         1 8US       0.228800
     16 C16          2.9770     1.4970    -0.2660 c5         1 8US       0.216800
     17 C17          4.2410     2.2220     0.1700 c5         1 8US       0.158300
     18 N18         -2.5930     3.6450    -0.7560 ns         1 8US      -0.386100
     19 N19          3.0820     0.2110     0.4000 nh         1 8US      -0.794400
     20 N20         -2.2430    -2.3900    -0.3230 nu         1 8US      -0.834100
     21 O21         -3.3530     2.1880    -2.3080 o          1 8US      -0.531000
     22 O22         -1.2020    -2.1310    -2.5930 o          1 8US      -0.532000
     23 O23         -1.0310    -4.3180    -1.3340 o          1 8US      -0.532000
     24 O24          5.2720     1.8470    -0.7160 oh         1 8US      -0.647000
     25 F25         -1.2180    -1.7270     2.1510 f          1 8US      -0.173000
     26 S26          1.0160    -0.6820    -1.0250 ss         1 8US       0.262000
     27 S27         -0.9960    -2.8660    -1.3570 sy         1 8US       1.183600
     28 H2          -0.9840     0.7700     2.7410 ha         1 8US       0.136000
     29 H3          -3.0310    -0.2460    -1.6540 ha         1 8US       0.172000
     30 H4           1.0170    -3.8710     0.6970 ha         1 8US       0.143000
     31 H5          -1.1860     3.2490     2.2500 ha         1 8US       0.200000
     32 H6          -1.9160     5.0010     0.6570 h4         1 8US       0.200000
     33 H7           3.7850     2.1540     2.2730 hc         1 8US       0.061700
     34 H8           5.4820     1.8220     1.9370 hc         1 8US       0.061700
     35 H9           4.9570    -0.4190     1.1270 h1         1 8US       0.058700
     36 H10          3.7120    -0.2270     2.3660 h1         1 8US       0.058700
     37 H11          2.0830     2.0390     0.0610 h1         1 8US       0.068700
     38 H12          2.9270     1.3870    -1.3540 h1         1 8US       0.068700
     39 H13          4.0890     3.3060     0.1760 h1         1 8US       0.053700
     40 H14         -2.8700     4.4070    -1.3590 hn         1 8US       0.330500
     41 H15         -2.3650    -3.0710     0.4200 hn         1 8US       0.487000
     42 H16          6.0980     2.2220    -0.3930 ho         1 8US       0.448000
     43 H1           2.9430    -2.3530     1.5640 ha         1 8US       0.137000
@<TRIPOS>BOND
     1     1     6 ar  
     2     1     8 ar  
     3     1    20 1   
     4     2     4 ar  
     5     2     5 ar  
     6     2    11 1   
     7     3     7 1   
     8     3     9 2   
     9     3    43 1   
    10     4     6 ar  
    11     4    13 1   
    12     5     8 ar  
    13     5    28 1   
    14     6    29 1   
    15     7    10 2   
    16     7    30 1   
    17     8    25 1   
    18     9    19 1   
    19     9    26 1   
    20    10    26 1   
    21    10    27 1   
    22    11    12 2   
    23    11    31 1   
    24    12    18 1   
    25    12    32 1   
    26    13    18 1   
    27    13    21 2   
    28    14    15 1   
    29    14    17 1   
    30    14    33 1   
    31    14    34 1   
    32    15    19 1   
    33    15    35 1   
    34    15    36 1   
    35    16    17 1   
    36    16    19 1   
    37    16    37 1   
    38    16    38 1   
    39    17    24 1   
    40    17    39 1   
    41    18    40 1   
    42    20    27 1   
    43    20    41 1   
    44    22    27 2   
    45    23    27 2   
    46    24    42 1   
@<TRIPOS>SUBSTRUCTURE
     1 8US         1 TEMP              0 ****  ****    0 ROOT
