@<TRIPOS>MOLECULE
8UU
   66    69     1     0     0
SMALL
No Charge or Current Charge


@<TRIPOS>ATOM
      1 F37         -1.0750     5.2610    -0.1620 f          1 8UU      -0.120000
      2 C21         -2.0020     4.3020     0.0660 c3         1 8UU       0.352300
      3 F35         -2.5200     4.5400     1.2930 f          1 8UU      -0.120000
      4 F36         -2.9960     4.5070    -0.8280 f          1 8UU      -0.120000
      5 C18         -1.4310     2.8820    -0.0310 ca         1 8UU      -0.171300
      6 C17         -2.3090     1.7830    -0.1350 ca         1 8UU      -0.114000
      7 C34         -0.0400     2.6450     0.0040 ca         1 8UU      -0.137000
      8 C19          0.4710     1.3350    -0.0610 ca         1 8UU       0.310000
      9 N23          1.8630     1.0830    -0.0170 nh         1 8UU      -0.784400
     10 C28          2.7890     1.9860     0.7180 c6         1 8UU       0.196800
     11 C27          4.0200     1.2090     1.2460 c6         1 8UU      -0.077900
     12 C26          4.7560     0.4500     0.1090 c6         1 8UU      -0.064700
     13 C29          5.9880    -0.3320     0.6630 c3         1 8UU      -0.049400
     14 C30          6.8780    -1.0210    -0.4050 c3         1 8UU      -0.207400
     15 C31          8.1370    -1.6110     0.2560 c          1 8UU       0.717000
     16 O33          9.1230    -0.8970     0.3600 o          1 8UU      -0.741500
     17 O32          8.0810    -2.7520     0.6890 o          1 8UU      -0.741500
     18 C25          3.7390    -0.4620    -0.6330 c6         1 8UU      -0.077900
     19 C24          2.5130     0.3410    -1.1320 c6         1 8UU       0.196800
     20 C20         -0.4240     0.2590    -0.1670 ca         1 8UU      -0.111000
     21 C16         -1.8200     0.4590    -0.2250 ca         1 8UU      -0.047300
     22 C4          -2.7420    -0.7910    -0.3070 c6         1 8UU       0.199800
     23 C14         -4.2560    -0.4930    -0.6910 c3         1 8UU      -0.044700
     24 C22         -4.4750     0.1920    -2.0690 c3         1 8UU      -0.086100
     25 C15         -5.1860    -1.7340    -0.5990 c3         1 8UU      -0.086100
     26 C3          -2.1400    -1.8590    -1.3660 ce         1 8UU      -0.253900
     27 C8          -1.7570    -1.4520    -2.7160 cg         1 8UU       0.316700
     28 N9          -1.4570    -1.1710    -3.8070 n1         1 8UU      -0.507000
     29 C2          -1.9330    -3.1700    -1.0280 c2         1 8UU       0.403100
     30 N7          -1.4370    -4.1660    -1.8350 nv         1 8UU      -0.967000
     31 C5          -2.7200    -1.4730     1.0480 cc         1 8UU      -0.233300
     32 C10         -2.9410    -0.9880     2.3080 cd         1 8UU      -0.086300
     33 C13         -3.2520     0.4050     2.7940 c3         1 8UU      -0.035800
     34 N11         -2.8150    -2.1110     3.1530 na         1 8UU      -0.007200
     35 N12         -2.5130    -3.2870     2.4560 nd         1 8UU      -0.515800
     36 C6          -2.4580    -2.8310     1.2280 cc         1 8UU       0.474300
     37 O1          -2.1670    -3.6790     0.2050 os         1 8UU      -0.339400
     38 H1          -3.3760     1.9810    -0.1300 ha         1 8UU       0.121000
     39 H2           0.6490     3.4790     0.0820 ha         1 8UU       0.130000
     40 H3           3.1260     2.7980     0.0560 h1         1 8UU       0.031700
     41 H4           2.2740     2.4460     1.5740 h1         1 8UU       0.031700
     42 H5           4.7070     1.9110     1.7380 hc         1 8UU       0.050950
     43 H6           3.6940     0.4990     2.0190 hc         1 8UU       0.050950
     44 H7           5.1470     1.1910    -0.6030 hc         1 8UU       0.036700
     45 H8           6.6190     0.3620     1.2320 hc         1 8UU       0.042200
     46 H9           5.6520    -1.0900     1.3820 hc         1 8UU       0.042200
     47 H10          6.2710    -1.8230    -0.8410 hc         1 8UU       0.015700
     48 H11          7.1540    -0.2350    -1.1190 hc         1 8UU       0.015700
     49 H13          4.2140    -0.9480    -1.4950 hc         1 8UU       0.050950
     50 H14          3.4000    -1.2660     0.0340 hc         1 8UU       0.050950
     51 H15          1.8040    -0.3550    -1.6040 h1         1 8UU       0.031700
     52 H16          2.8360     1.0500    -1.9090 h1         1 8UU       0.031700
     53 H17         -0.0220    -0.7490    -0.1850 ha         1 8UU       0.133000
     54 H18         -4.6520     0.2020     0.0570 hc         1 8UU       0.040700
     55 H19         -5.4810     0.6250    -2.1220 hc         1 8UU       0.034700
     56 H20         -3.7560     0.9970    -2.2510 hc         1 8UU       0.034700
     57 H21         -4.3870    -0.5310    -2.8880 hc         1 8UU       0.034700
     58 H22         -5.2030    -2.1510     0.4140 hc         1 8UU       0.034700
     59 H23         -6.2180    -1.4610    -0.8540 hc         1 8UU       0.034700
     60 H24         -4.8660    -2.5210    -1.2910 hc         1 8UU       0.034700
     61 H25         -1.5700    -4.0390    -2.8340 hn         1 8UU       0.506500
     62 H26         -1.5920    -5.1140    -1.5020 hn         1 8UU       0.506500
     63 H27         -4.0930     0.8420     2.2440 hc         1 8UU       0.058367
     64 H28         -3.5190     0.4090     3.8570 hc         1 8UU       0.058367
     65 H29         -2.3870     1.0660     2.6680 hc         1 8UU       0.058367
     66 H30         -2.9250    -2.1100     4.1670 hn         1 8UU       0.377000
@<TRIPOS>BOND
     1     1     2 1   
     2     2     3 1   
     3     2     4 1   
     4     2     5 1   
     5     5     6 ar  
     6     5     7 ar  
     7     6    21 ar  
     8     6    38 1   
     9     7     8 ar  
    10     7    39 1   
    11     8     9 1   
    12     8    20 ar  
    13     9    10 1   
    14     9    19 1   
    15    10    11 1   
    16    10    40 1   
    17    10    41 1   
    18    11    12 1   
    19    11    42 1   
    20    11    43 1   
    21    12    13 1   
    22    12    18 1   
    23    12    44 1   
    24    13    14 1   
    25    13    45 1   
    26    13    46 1   
    27    14    15 1   
    28    14    47 1   
    29    14    48 1   
    30    15    16 1   
    31    15    17 1   
    32    18    19 1   
    33    18    49 1   
    34    18    50 1   
    35    19    51 1   
    36    19    52 1   
    37    20    21 ar  
    38    20    53 1   
    39    21    22 1   
    40    22    23 1   
    41    22    26 1   
    42    22    31 1   
    43    23    24 1   
    44    23    25 1   
    45    23    54 1   
    46    24    55 1   
    47    24    56 1   
    48    24    57 1   
    49    25    58 1   
    50    25    59 1   
    51    25    60 1   
    52    26    27 1   
    53    26    29 2   
    54    27    28 3   
    55    29    30 1   
    56    29    37 1   
    57    30    61 1   
    58    30    62 1   
    59    31    32 2   
    60    31    36 1   
    61    32    33 1   
    62    32    34 1   
    63    33    63 1   
    64    33    64 1   
    65    33    65 1   
    66    34    35 1   
    67    34    66 1   
    68    35    36 2   
    69    36    37 1   
@<TRIPOS>SUBSTRUCTURE
     1 8UU         1 TEMP              0 ****  ****    0 ROOT
