@<TRIPOS>MOLECULE
8UU
   66    69     1     0     0
SMALL
abcg2


@<TRIPOS>ATOM
      1 F37         -0.9140     5.0690    -0.2290 f          1 8UU      -0.120000
      2 C21         -1.8190     4.1650     0.1650 c3         1 8UU       0.352300
      3 F35         -2.1230     4.4580     1.4400 f          1 8UU      -0.120000
      4 F36         -2.9280     4.3890    -0.5500 f          1 8UU      -0.120000
      5 C18         -1.3270     2.7570     0.0310 ca         1 8UU      -0.171300
      6 C17         -2.2490     1.7350    -0.1360 ca         1 8UU      -0.114000
      7 C34          0.0340     2.5010     0.1260 ca         1 8UU      -0.137000
      8 C19          0.4990     1.1830     0.0770 ca         1 8UU       0.310000
      9 N23          1.8470     0.8630     0.1980 nh         1 8UU      -0.784400
     10 C28          2.7630     1.9240     0.5760 c6         1 8UU       0.196800
     11 C27          4.0880     1.3570     1.0580 c6         1 8UU      -0.077900
     12 C26          4.7360     0.4340     0.0330 c6         1 8UU      -0.064700
     13 C29          6.0510    -0.1390     0.5560 c3         1 8UU      -0.049400
     14 C30          6.8220    -0.9510    -0.4720 c3         1 8UU      -0.207400
     15 C31          8.2140    -1.4440    -0.0370 c          1 8UU       0.717000
     16 O33          8.6120    -1.1430     1.1050 o          1 8UU      -0.741500
     17 O32          8.8410    -2.1180    -0.8820 o          1 8UU      -0.741500
     18 C25          3.7240    -0.6410    -0.3510 c6         1 8UU      -0.077900
     19 C24          2.4060    -0.0380    -0.8060 c6         1 8UU       0.196800
     20 C20         -0.4470     0.1650    -0.0770 ca         1 8UU      -0.111000
     21 C16         -1.8040     0.4180    -0.2000 ca         1 8UU      -0.047300
     22 C4          -2.7630    -0.7770    -0.3080 c6         1 8UU       0.199800
     23 C14         -4.1860    -0.3790    -0.8020 c3         1 8UU      -0.044700
     24 C22         -4.2060     0.1890    -2.2200 c3         1 8UU      -0.086100
     25 C15         -5.1700    -1.5410    -0.7140 c3         1 8UU      -0.086100
     26 C3          -2.1530    -1.8490    -1.2100 ce         1 8UU      -0.253900
     27 C8          -1.6110    -1.4680    -2.4500 cg         1 8UU       0.316700
     28 N9          -1.1340    -1.1600    -3.4590 n1         1 8UU      -0.507000
     29 C2          -2.0570    -3.1830    -0.8960 c2         1 8UU       0.403100
     30 N7          -1.5930    -4.1410    -1.7050 nv         1 8UU      -0.967000
     31 C5          -2.8580    -1.4080     1.0490 cc         1 8UU      -0.233300
     32 C10         -3.1450    -0.9220     2.3130 cd         1 8UU      -0.086300
     33 C13         -3.4350     0.4480     2.8070 c3         1 8UU      -0.035800
     34 N11         -3.1230    -1.9940     3.1250 na         1 8UU      -0.007200
     35 N12         -2.8420    -3.1450     2.5070 nd         1 8UU      -0.515800
     36 C6          -2.6890    -2.7710     1.2640 cc         1 8UU       0.474300
     37 O1          -2.3950    -3.6800     0.3040 os         1 8UU      -0.339400
     38 H1          -3.3010     1.9670    -0.2100 ha         1 8UU       0.121000
     39 H2           0.7300     3.3220     0.2150 ha         1 8UU       0.130000
     40 H3           2.9410     2.6190    -0.2610 h1         1 8UU       0.031700
     41 H4           2.3150     2.5060     1.3830 h1         1 8UU       0.031700
     42 H5           4.7530     2.1910     1.2980 hc         1 8UU       0.050950
     43 H6           3.9230     0.8040     1.9900 hc         1 8UU       0.050950
     44 H7           4.9560     1.0270    -0.8670 hc         1 8UU       0.036700
     45 H8           6.6750     0.6900     0.9040 hc         1 8UU       0.042200
     46 H9           5.8440    -0.7510     1.4400 hc         1 8UU       0.042200
     47 H10          6.2440    -1.8290    -0.7790 hc         1 8UU       0.015700
     48 H11          6.9400    -0.3610    -1.3890 hc         1 8UU       0.015700
     49 H13          4.1070    -1.2670    -1.1590 hc         1 8UU       0.050950
     50 H14          3.5480    -1.3000     0.5070 hc         1 8UU       0.050950
     51 H15          1.7000    -0.8380    -1.0170 h1         1 8UU       0.031700
     52 H16          2.5600     0.5040    -1.7530 h1         1 8UU       0.031700
     53 H17         -0.1130    -0.8650    -0.0780 ha         1 8UU       0.133000
     54 H18         -4.5550     0.3950    -0.1180 hc         1 8UU       0.040700
     55 H19         -5.1790     0.6390    -2.4210 hc         1 8UU       0.034700
     56 H20         -3.4490     0.9550    -2.3870 hc         1 8UU       0.034700
     57 H21         -4.0550    -0.5960    -2.9630 hc         1 8UU       0.034700
     58 H22         -5.3170    -1.8880     0.3080 hc         1 8UU       0.034700
     59 H23         -6.1430    -1.2280    -1.0950 hc         1 8UU       0.034700
     60 H24         -4.8410    -2.3890    -1.3190 hc         1 8UU       0.034700
     61 H25         -1.5210    -3.9810    -2.6960 hn         1 8UU       0.506500
     62 H26         -1.6140    -5.1010    -1.4060 hn         1 8UU       0.506500
     63 H27         -4.2800     0.8850     2.2760 hc         1 8UU       0.058367
     64 H28         -3.6760     0.4410     3.8690 hc         1 8UU       0.058367
     65 H29         -2.5800     1.1080     2.6590 hc         1 8UU       0.058367
     66 H30         -3.2860    -1.9970     4.1200 hn         1 8UU       0.377000
@<TRIPOS>BOND
     1     1     2 1   
     2     2     3 1   
     3     2     4 1   
     4     2     5 1   
     5     5     6 ar  
     6     5     7 ar  
     7     6    21 ar  
     8     6    38 1   
     9     7     8 ar  
    10     7    39 1   
    11     8     9 1   
    12     8    20 ar  
    13     9    10 1   
    14     9    19 1   
    15    10    11 1   
    16    10    40 1   
    17    10    41 1   
    18    11    12 1   
    19    11    42 1   
    20    11    43 1   
    21    12    13 1   
    22    12    18 1   
    23    12    44 1   
    24    13    14 1   
    25    13    45 1   
    26    13    46 1   
    27    14    15 1   
    28    14    47 1   
    29    14    48 1   
    30    15    16 1   
    31    15    17 1   
    32    18    19 1   
    33    18    49 1   
    34    18    50 1   
    35    19    51 1   
    36    19    52 1   
    37    20    21 ar  
    38    20    53 1   
    39    21    22 1   
    40    22    23 1   
    41    22    26 1   
    42    22    31 1   
    43    23    24 1   
    44    23    25 1   
    45    23    54 1   
    46    24    55 1   
    47    24    56 1   
    48    24    57 1   
    49    25    58 1   
    50    25    59 1   
    51    25    60 1   
    52    26    27 1   
    53    26    29 2   
    54    27    28 3   
    55    29    30 1   
    56    29    37 1   
    57    30    61 1   
    58    30    62 1   
    59    31    32 2   
    60    31    36 1   
    61    32    33 1   
    62    32    34 1   
    63    33    63 1   
    64    33    64 1   
    65    33    65 1   
    66    34    35 1   
    67    34    66 1   
    68    35    36 2   
    69    36    37 1   
@<TRIPOS>SUBSTRUCTURE
     1 8UU         1 TEMP              0 ****  ****    0 ROOT
