@<TRIPOS>MOLECULE
8UV
   40    42     1     0     0
SMALL
No Charge or Current Charge


@<TRIPOS>ATOM
      1 C1           5.7270    -0.1510     3.0090 c3         1 8UV       0.148900
      2 C4           5.8240    -0.1990     0.1030 ca         1 8UV      -0.189000
      3 C6           4.7770     0.4160    -2.0080 ca         1 8UV      -0.129000
      4 C9           2.5780     1.6930    -2.0820 c3         1 8UV      -0.104100
      5 N12          0.3790     0.7620    -1.5380 ns         1 8UV      -0.477400
      6 C13         -0.7500    -0.0120    -1.5220 cc         1 8UV       0.537300
      7 C19         -5.0070    -1.3440     0.1250 ca         1 8UV      -0.210000
      8 C20         -6.0790    -1.1930     1.0220 ca         1 8UV       0.376900
      9 C22         -5.0570     0.5580     2.0570 ca         1 8UV       0.588900
     10 O2           4.7090     0.4460     2.1860 os         1 8UV      -0.341100
     11 C3           4.7660     0.4170     0.8070 ca         1 8UV       0.143100
     12 C5           5.8250    -0.1970    -1.3020 ca         1 8UV      -0.070000
     13 C7           3.7180     1.0330    -1.3150 ca         1 8UV      -0.043300
     14 C8           3.7210     1.0280     0.0940 ca         1 8UV      -0.128000
     15 C10          1.4660     0.6800    -2.3720 c          1 8UV       0.603100
     16 O11          1.5590    -0.1420    -3.2710 o          1 8UV      -0.553100
     17 N14         -1.6550     0.2730    -0.6060 nd         1 8UV      -0.706000
     18 C15         -2.7350    -0.5940    -0.7150 cd         1 8UV       0.361500
     19 C16         -2.6230    -1.5270    -1.7220 cc         1 8UV      -0.298000
     20 S17         -1.1270    -1.3480    -2.5880 ss         1 8UV       0.075600
     21 C18         -3.8920    -0.4800     0.2070 ca         1 8UV      -0.041500
     22 N21         -6.1080    -0.2450     1.9850 nb         1 8UV      -0.742000
     23 C23         -3.9400     0.5030     1.2190 ca         1 8UV      -0.199000
     24 H1           6.7040     0.3130     2.8190 h1         1 8UV       0.041367
     25 H2           5.4870    -0.0130     4.0700 h1         1 8UV       0.041367
     26 H3           5.8040    -1.2280     2.8150 h1         1 8UV       0.041367
     27 H4           6.6460    -0.6800     0.6240 ha         1 8UV       0.118000
     28 H5           4.7870     0.4090    -3.0950 ha         1 8UV       0.114000
     29 H6           2.1800     2.5250    -1.4880 hc         1 8UV       0.072700
     30 H7           2.9540     2.0800    -3.0350 hc         1 8UV       0.072700
     31 H8           0.4230     1.4840    -0.8350 hn         1 8UV       0.339500
     32 H9          -5.0600    -2.1300    -0.6220 ha         1 8UV       0.121000
     33 H10         -6.9440    -1.8530     0.9670 h4         1 8UV       0.014100
     34 H11          6.6400    -0.6720    -1.8460 ha         1 8UV       0.113000
     35 H12          2.9100     1.4990     0.6440 ha         1 8UV       0.126000
     36 H13         -3.3140    -2.3050    -2.0140 h4         1 8UV       0.162000
     37 H14         -3.1280     1.2090     1.3580 ha         1 8UV       0.138000
     38 H15         -4.6590     2.3060     2.9830 hn         1 8UV       0.470000
     39 H16         -6.1420     1.5360     3.4140 hn         1 8UV       0.470000
     40 N24         -5.2050     1.4530     3.0390 nv         1 8UV      -1.057900
@<TRIPOS>BOND
     1     1    10 1   
     2     1    24 1   
     3     1    25 1   
     4     1    26 1   
     5     2    11 ar  
     6     2    12 ar  
     7     2    27 1   
     8     3    12 ar  
     9     3    13 ar  
    10     3    28 1   
    11     4    13 1   
    12     4    15 1   
    13     4    29 1   
    14     4    30 1   
    15     5     6 1   
    16     5    15 1   
    17     5    31 1   
    18     6    17 2   
    19     6    20 1   
    20     7     8 ar  
    21     7    21 ar  
    22     7    32 1   
    23     8    22 ar  
    24     8    33 1   
    25     9    22 ar  
    26     9    23 ar  
    27     9    40 1   
    28    10    11 1   
    29    11    14 ar  
    30    12    34 1   
    31    13    14 ar  
    32    14    35 1   
    33    15    16 2   
    34    17    18 1   
    35    18    19 2   
    36    18    21 1   
    37    19    20 1   
    38    19    36 1   
    39    21    23 ar  
    40    23    37 1   
    41    38    40 1   
    42    39    40 1   
@<TRIPOS>SUBSTRUCTURE
     1 8UV         1 TEMP              0 ****  ****    0 ROOT
