@<TRIPOS>MOLECULE
8UV
   40    42     1     0     0
SMALL
bcc


@<TRIPOS>ATOM
      1 C1           7.8400    -0.8630     1.5720 c3         1 8UV       0.125700
      2 C4           6.4370     0.0100    -0.7000 ca         1 8UV      -0.207000
      3 C6           4.3940     0.9380    -1.6010 ca         1 8UV      -0.147000
      4 C9           2.4420     1.4650    -0.1110 c3         1 8UV      -0.104100
      5 N12          0.1310     0.7570    -0.0980 ns         1 8UV      -0.544400
      6 C13         -0.9560    -0.0720    -0.2130 cc         1 8UV       0.537300
      7 C19         -5.4710    -1.3650    -0.2250 ca         1 8UV      -0.293300
      8 C20         -6.7900    -1.0330    -0.0110 ca         1 8UV       0.442200
      9 C22         -6.2910     1.0950     0.6320 ca         1 8UV       0.654200
     10 O2           6.5280    -0.3530     1.6940 os         1 8UV      -0.317900
     11 C3           5.8890     0.0500     0.5790 ca         1 8UV       0.143100
     12 C5           5.6800     0.4580    -1.7780 ca         1 8UV      -0.088000
     13 C7           3.8440     0.9760    -0.3210 ca         1 8UV      -0.043300
     14 C8           4.5910     0.5350     0.7580 ca         1 8UV      -0.146000
     15 C10          1.4220     0.3650    -0.2920 c          1 8UV       0.670100
     16 O11          1.6920    -0.7810    -0.5860 o          1 8UV      -0.553100
     17 N14         -2.1590     0.3480    -0.0080 nd         1 8UV      -0.706000
     18 C15         -3.0710    -0.6580    -0.1880 cd         1 8UV       0.426800
     19 C16         -2.5310    -1.8570    -0.5360 cc         1 8UV      -0.236400
     20 S17         -0.8210    -1.7450    -0.6460 ss         1 8UV      -0.069300
     21 C18         -4.4980    -0.3830     0.0100 ca         1 8UV      -0.041500
     22 N21         -7.2100     0.1600     0.4060 nb         1 8UV      -0.742000
     23 C23         -4.9180     0.8610     0.4410 ca         1 8UV      -0.282300
     24 H1           8.5320    -0.1210     1.1640 h1         1 8UV       0.041367
     25 H2           8.1650    -1.1280     2.5750 h1         1 8UV       0.041367
     26 H3           7.8740    -1.7580     0.9440 h1         1 8UV       0.041367
     27 H4           7.4380    -0.3570    -0.8780 ha         1 8UV       0.136000
     28 H5           3.8210     1.2840    -2.4510 ha         1 8UV       0.132000
     29 H6           2.3210     1.8860     0.8910 hc         1 8UV       0.072700
     30 H7           2.2010     2.2720    -0.8100 hc         1 8UV       0.072700
     31 H8          -0.0740     1.7160     0.1470 hn         1 8UV       0.339500
     32 H9          -5.2140    -2.3570    -0.5700 ha         1 8UV       0.139000
     33 H10         -7.5650    -1.7710    -0.1890 h4         1 8UV       0.014100
     34 H11          6.1110     0.4270    -2.7700 ha         1 8UV       0.131000
     35 H12          4.1750     0.5660     1.7590 ha         1 8UV       0.144000
     36 H13         -3.0330    -2.7920    -0.7290 h4         1 8UV       0.180000
     37 H14         -4.2020     1.6490     0.6350 ha         1 8UV       0.156000
     38 H15         -6.1270     3.0950     0.9910 hn         1 8UV       0.414800
     39 H16         -7.7080     2.4950     0.9820 hn         1 8UV       0.414800
     40 N24         -6.7290     2.2960     1.1050 nv         1 8UV      -0.947500
@<TRIPOS>BOND
     1     1    10 1   
     2     1    24 1   
     3     1    25 1   
     4     1    26 1   
     5     2    11 ar  
     6     2    12 ar  
     7     2    27 1   
     8     3    12 ar  
     9     3    13 ar  
    10     3    28 1   
    11     4    13 1   
    12     4    15 1   
    13     4    29 1   
    14     4    30 1   
    15     5     6 1   
    16     5    15 1   
    17     5    31 1   
    18     6    17 2   
    19     6    20 1   
    20     7     8 ar  
    21     7    21 ar  
    22     7    32 1   
    23     8    22 ar  
    24     8    33 1   
    25     9    22 ar  
    26     9    23 ar  
    27     9    40 1   
    28    10    11 1   
    29    11    14 ar  
    30    12    34 1   
    31    13    14 ar  
    32    14    35 1   
    33    15    16 2   
    34    17    18 1   
    35    18    19 2   
    36    18    21 1   
    37    19    20 1   
    38    19    36 1   
    39    21    23 ar  
    40    23    37 1   
    41    38    40 1   
    42    39    40 1   
@<TRIPOS>SUBSTRUCTURE
     1 8UV         1 TEMP              0 ****  ****    0 ROOT
