@<TRIPOS>MOLECULE
8UW
   63    65     1     0     0
SMALL
No Charge or Current Charge


@<TRIPOS>ATOM
      1 C02         19.5760    44.5460    40.0700 c3         1 8UW       0.154300
      2 C03         20.0730    43.9860    41.4420 c3         1 8UW       0.150800
      3 C05         21.2380    41.9450    42.4180 c3         1 8UW       0.179800
      4 C06         22.1040    42.4690    43.6100 c6         1 8UW      -0.097700
      5 C07         21.3500    43.4220    44.5840 c6         1 8UW      -0.069400
      6 C08         22.3000    44.0270    45.6590 c6         1 8UW      -0.072900
      7 C09         23.5150    43.1160    45.9900 c6         1 8UW      -0.073400
      8 C10         23.1500    41.6220    45.8550 c6         1 8UW      -0.072900
      9 C11         22.7010    41.2640    44.4090 c6         1 8UW      -0.069400
     10 C12         18.7790    43.5110    39.2300 c3         1 8UW       0.106000
     11 C14         17.4390    41.7530    40.4570 c          1 8UW       0.606100
     12 C16         16.1460    41.5270    41.2450 c3         1 8UW      -0.161400
     13 C17         16.3560    41.7200    42.7740 c3         1 8UW       0.040900
     14 C18         17.3530    40.7590    43.4400 ca         1 8UW      -0.079300
     15 C19         17.5210    39.4210    43.0180 ca         1 8UW      -0.100250
     16 C20         18.4390    38.5760    43.6660 ca         1 8UW      -0.109750
     17 C21         19.1910    39.0520    44.7520 ca         1 8UW      -0.107500
     18 C22         19.0190    40.3730    45.1930 ca         1 8UW      -0.109750
     19 C23         18.1050    41.2200    44.5410 ca         1 8UW      -0.100250
     20 C24         15.0220    41.6860    43.5220 ca         1 8UW      -0.079300
     21 C25         14.2100    40.5330    43.4970 ca         1 8UW      -0.100250
     22 C26         12.9870    40.5070    44.1900 ca         1 8UW      -0.109750
     23 C27         12.5660    41.6330    44.9160 ca         1 8UW      -0.107500
     24 C28         13.3690    42.7840    44.9500 ca         1 8UW      -0.109750
     25 C29         14.5920    42.8110    44.2580 ca         1 8UW      -0.100250
     26 N04         21.0700    42.8970    41.2950 n7         1 8UW      -0.884400
     27 N13         17.5740    43.0150    39.9190 ns         1 8UW      -0.507900
     28 O01         20.6810    45.0530    39.2940 oh         1 8UW      -0.657000
     29 O15         18.2650    40.8710    40.2790 o          1 8UW      -0.589100
     30 H1          18.8920    45.3760    40.2920 h1         1 8UW       0.017700
     31 H2          20.5020    44.8180    42.0140 h1         1 8UW       0.030700
     32 H3          19.1990    43.6260    42.0030 h1         1 8UW       0.030700
     33 H4          20.2640    41.6070    42.7980 h1         1 8UW       0.055200
     34 H5          21.7420    41.0500    42.0270 h1         1 8UW       0.055200
     35 H6          22.9400    43.0250    43.1630 hc         1 8UW       0.043700
     36 H7          20.8580    44.2420    44.0520 hc         1 8UW       0.036700
     37 H8          20.5460    42.8650    45.0830 hc         1 8UW       0.036700
     38 H9          22.6700    45.0030    45.3190 hc         1 8UW       0.035950
     39 H10         21.7230    44.2240    46.5730 hc         1 8UW       0.035950
     40 H11         23.8760    43.3300    47.0050 hc         1 8UW       0.038200
     41 H12         24.3480    43.3480    45.3120 hc         1 8UW       0.038200
     42 H13         22.3390    41.3870    46.5590 hc         1 8UW       0.035950
     43 H14         24.0020    40.9940    46.1480 hc         1 8UW       0.035950
     44 H15         21.9690    40.4460    44.4650 hc         1 8UW       0.036700
     45 H16         23.5570    40.8610    43.8510 hc         1 8UW       0.036700
     46 H17         19.4380    42.6690    38.9780 h1         1 8UW       0.075200
     47 H18         18.4680    43.9810    38.2880 h1         1 8UW       0.075200
     48 H19         15.4060    42.2740    40.9350 hc         1 8UW       0.071200
     49 H20         15.7610    40.5250    41.0360 hc         1 8UW       0.071200
     50 H21         16.7720    42.7310    42.8770 hc         1 8UW       0.046700
     51 H22         16.9450    39.0220    42.1870 ha         1 8UW       0.111500
     52 H23         18.5640    37.5500    43.3280 ha         1 8UW       0.113250
     53 H24         19.9000    38.3980    45.2540 ha         1 8UW       0.114000
     54 H25         19.5940    40.7420    46.0390 ha         1 8UW       0.113250
     55 H26         17.9810    42.2400    44.8960 ha         1 8UW       0.111500
     56 H27         14.5260    39.6520    42.9440 ha         1 8UW       0.111500
     57 H28         12.3680    39.6130    44.1650 ha         1 8UW       0.113250
     58 H29         11.6190    41.6120    45.4530 ha         1 8UW       0.114000
     59 H30         13.0450    43.6560    45.5140 ha         1 8UW       0.113250
     60 H31         15.2050    43.7090    44.2950 ha         1 8UW       0.111500
     61 H32         21.9780    43.2870    41.0160 hn         1 8UW       0.423000
     62 H34         16.8180    43.6670    40.0920 hn         1 8UW       0.301500
     63 H35         21.1680    45.6850    39.8660 ho         1 8UW       0.440000
@<TRIPOS>BOND
     1     1     2 1   
     2     1    10 1   
     3     1    28 1   
     4     1    30 1   
     5     2    26 1   
     6     2    31 1   
     7     2    32 1   
     8     3     4 1   
     9     3    26 1   
    10     3    33 1   
    11     3    34 1   
    12     4     5 1   
    13     4     9 1   
    14     4    35 1   
    15     5     6 1   
    16     5    36 1   
    17     5    37 1   
    18     6     7 1   
    19     6    38 1   
    20     6    39 1   
    21     7     8 1   
    22     7    40 1   
    23     7    41 1   
    24     8     9 1   
    25     8    42 1   
    26     8    43 1   
    27     9    44 1   
    28     9    45 1   
    29    10    27 1   
    30    10    46 1   
    31    10    47 1   
    32    11    12 1   
    33    11    27 1   
    34    11    29 2   
    35    12    13 1   
    36    12    48 1   
    37    12    49 1   
    38    13    14 1   
    39    13    20 1   
    40    13    50 1   
    41    14    15 ar  
    42    14    19 ar  
    43    15    16 ar  
    44    15    51 1   
    45    16    17 ar  
    46    16    52 1   
    47    17    18 ar  
    48    17    53 1   
    49    18    19 ar  
    50    18    54 1   
    51    19    55 1   
    52    20    21 ar  
    53    20    25 ar  
    54    21    22 ar  
    55    21    56 1   
    56    22    23 ar  
    57    22    57 1   
    58    23    24 ar  
    59    23    58 1   
    60    24    25 ar  
    61    24    59 1   
    62    25    60 1   
    63    26    61 1   
    64    27    62 1   
    65    28    63 1   
@<TRIPOS>SUBSTRUCTURE
     1 8UW         1 TEMP              0 ****  ****    0 ROOT
