@<TRIPOS>MOLECULE
8UW
   63    65     1     0     0
SMALL
abcg2


@<TRIPOS>ATOM
      1 C02         19.4090    44.6780    40.8480 c3         1 8UW       0.154300
      2 C03         20.0910    43.9160    41.9790 c3         1 8UW       0.150800
      3 C05         21.3650    41.8310    42.3650 c3         1 8UW       0.179800
      4 C06         22.5140    41.9910    43.3640 c6         1 8UW      -0.097700
      5 C07         22.3450    43.1390    44.3540 c6         1 8UW      -0.069400
      6 C08         23.6080    43.3360    45.2050 c6         1 8UW      -0.072900
      7 C09         24.3500    42.0180    45.4650 c6         1 8UW      -0.073400
      8 C10         23.3670    40.8550    45.4970 c6         1 8UW      -0.072900
      9 C11         22.7140    40.6650    44.1230 c6         1 8UW      -0.069400
     10 C12         18.6890    43.7790    39.8480 c3         1 8UW       0.106000
     11 C14         17.4340    41.7700    40.5740 c          1 8UW       0.606100
     12 C16         16.1280    41.3080    41.1960 c3         1 8UW      -0.161400
     13 C17         15.8350    41.9140    42.5770 c3         1 8UW       0.040900
     14 C18         16.9580    41.7100    43.5730 ca         1 8UW      -0.079300
     15 C19         17.6340    40.4970    43.6930 ca         1 8UW      -0.100250
     16 C20         18.6220    40.3270    44.6530 ca         1 8UW      -0.109750
     17 C21         18.9600    41.3700    45.5040 ca         1 8UW      -0.107500
     18 C22         18.3030    42.5870    45.3860 ca         1 8UW      -0.109750
     19 C23         17.3110    42.7500    44.4290 ca         1 8UW      -0.100250
     20 C24         14.5210    41.4010    43.1350 ca         1 8UW      -0.079300
     21 C25         14.2560    40.0380    43.2590 ca         1 8UW      -0.100250
     22 C26         13.0490    39.5940    43.7780 ca         1 8UW      -0.109750
     23 C27         12.0820    40.5050    44.1850 ca         1 8UW      -0.107500
     24 C28         12.3350    41.8640    44.0680 ca         1 8UW      -0.109750
     25 C29         13.5450    42.3050    43.5470 ca         1 8UW      -0.100250
     26 N04         21.0550    42.9530    41.5020 n7         1 8UW      -0.884400
     27 N13         17.5600    43.1030    40.4410 ns         1 8UW      -0.507900
     28 O01         20.3290    45.4370    40.0890 oh         1 8UW      -0.657000
     29 O15         18.2820    40.9710    40.2010 o          1 8UW      -0.589100
     30 H1          18.6590    45.3360    41.3160 h1         1 8UW       0.017700
     31 H2          20.5110    44.6660    42.6680 h1         1 8UW       0.030700
     32 H3          19.3250    43.3890    42.5520 h1         1 8UW       0.030700
     33 H4          20.4540    41.5640    42.9110 h1         1 8UW       0.055200
     34 H5          21.5980    40.9600    41.7390 h1         1 8UW       0.055200
     35 H6          23.4240    42.1940    42.7820 hc         1 8UW       0.043700
     36 H7          22.1160    44.0690    43.8330 hc         1 8UW       0.036700
     37 H8          21.4830    42.9310    44.9980 hc         1 8UW       0.036700
     38 H9          24.2800    44.0430    44.7120 hc         1 8UW       0.035950
     39 H10         23.3300    43.7970    46.1560 hc         1 8UW       0.035950
     40 H11         24.9150    42.0790    46.3970 hc         1 8UW       0.038200
     41 H12         25.0860    41.8350    44.6760 hc         1 8UW       0.038200
     42 H13         22.5990    41.0570    46.2520 hc         1 8UW       0.035950
     43 H14         23.8620    39.9330    45.8090 hc         1 8UW       0.035950
     44 H15         21.7470    40.1690    44.2490 hc         1 8UW       0.036700
     45 H16         23.3220    39.9900    43.5140 hc         1 8UW       0.036700
     46 H17         19.3720    43.0340    39.4470 h1         1 8UW       0.075200
     47 H18         18.3390    44.3910    39.0120 h1         1 8UW       0.075200
     48 H19         15.3060    41.5660    40.5230 hc         1 8UW       0.071200
     49 H20         16.1610    40.2210    41.2470 hc         1 8UW       0.071200
     50 H21         15.7090    42.9940    42.4570 hc         1 8UW       0.046700
     51 H22         17.3960    39.6680    43.0380 ha         1 8UW       0.111500
     52 H23         19.1370    39.3770    44.7300 ha         1 8UW       0.113250
     53 H24         19.7370    41.2380    46.2470 ha         1 8UW       0.114000
     54 H25         18.5650    43.4120    46.0350 ha         1 8UW       0.113250
     55 H26         16.8040    43.7050    44.3430 ha         1 8UW       0.111500
     56 H27         14.9930    39.3060    42.9530 ha         1 8UW       0.111500
     57 H28         12.8630    38.5310    43.8650 ha         1 8UW       0.113250
     58 H29         11.1400    40.1580    44.5880 ha         1 8UW       0.114000
     59 H30         11.5910    42.5860    44.3790 ha         1 8UW       0.113250
     60 H31         13.7320    43.3690    43.4570 ha         1 8UW       0.111500
     61 H32         21.8960    43.4060    41.1710 hn         1 8UW       0.423000
     62 H34         16.7890    43.6850    40.7280 hn         1 8UW       0.301500
     63 H35         20.7810    46.0460    40.6810 ho         1 8UW       0.440000
@<TRIPOS>BOND
     1     1     2 1   
     2     1    10 1   
     3     1    28 1   
     4     1    30 1   
     5     2    26 1   
     6     2    31 1   
     7     2    32 1   
     8     3     4 1   
     9     3    26 1   
    10     3    33 1   
    11     3    34 1   
    12     4     5 1   
    13     4     9 1   
    14     4    35 1   
    15     5     6 1   
    16     5    36 1   
    17     5    37 1   
    18     6     7 1   
    19     6    38 1   
    20     6    39 1   
    21     7     8 1   
    22     7    40 1   
    23     7    41 1   
    24     8     9 1   
    25     8    42 1   
    26     8    43 1   
    27     9    44 1   
    28     9    45 1   
    29    10    27 1   
    30    10    46 1   
    31    10    47 1   
    32    11    12 1   
    33    11    27 1   
    34    11    29 2   
    35    12    13 1   
    36    12    48 1   
    37    12    49 1   
    38    13    14 1   
    39    13    20 1   
    40    13    50 1   
    41    14    15 ar  
    42    14    19 ar  
    43    15    16 ar  
    44    15    51 1   
    45    16    17 ar  
    46    16    52 1   
    47    17    18 ar  
    48    17    53 1   
    49    18    19 ar  
    50    18    54 1   
    51    19    55 1   
    52    20    21 ar  
    53    20    25 ar  
    54    21    22 ar  
    55    21    56 1   
    56    22    23 ar  
    57    22    57 1   
    58    23    24 ar  
    59    23    58 1   
    60    24    25 ar  
    61    24    59 1   
    62    25    60 1   
    63    26    61 1   
    64    27    62 1   
    65    28    63 1   
@<TRIPOS>SUBSTRUCTURE
     1 8UW         1 TEMP              0 ****  ****    0 ROOT
