@<TRIPOS>MOLECULE
8UX
   40    40     1     0     0
SMALL
No Charge or Current Charge


@<TRIPOS>ATOM
      1 OXT         -4.5280    -2.6940     1.1600 o          1 8UX      -0.765000
      2 C           -4.6150    -1.7830     0.3440 c          1 8UX       0.726000
      3 O           -5.2140    -1.9060    -0.7200 o          1 8UX      -0.765000
      4 CA          -3.8680    -0.4150     0.6520 c3         1 8UX       0.060500
      5 CB          -4.9030     0.7160     0.8780 c3         1 8UX      -0.102100
      6 N           -2.8500    -0.0240    -0.3900 n7         1 8UX      -0.841400
      7 CAV         -1.9960     1.1910    -0.1320 c3         1 8UX       0.048500
      8 CAR         -2.6210     2.5590    -0.6300 c          1 8UX       0.693000
      9 OAF         -2.5550     3.5370     0.1050 o          1 8UX      -0.768000
     10 OAC         -3.1970     2.5840    -1.7120 o          1 8UX      -0.768000
     11 CAK         -0.5960     0.9980    -0.7740 c3         1 8UX      -0.046400
     12 CAJ          0.2330    -0.1420    -0.1400 c3         1 8UX       0.164800
     13 NAN          1.5960    -0.1720    -0.7130 n7         1 8UX      -0.843400
     14 CAW          2.5260    -1.1900    -0.1200 c3         1 8UX       0.059500
     15 CAS          2.1680    -2.7040    -0.4460 c          1 8UX       0.722000
     16 OAG          1.6030    -3.3650     0.4180 o          1 8UX      -0.733500
     17 OAD          2.5060    -3.1820    -1.5250 o          1 8UX      -0.733500
     18 CAL          3.9780    -0.8340    -0.5280 c3         1 8UX      -0.104700
     19 CAT          4.4820     0.4410     0.0960 cc         1 8UX       0.298300
     20 CAI          5.2130     0.5690     1.2450 cd         1 8UX      -0.277000
     21 NAM          5.4290     1.9310     1.3840 na         1 8UX      -0.325500
     22 CAH          4.8240     2.5590     0.3110 cd         1 8UX       0.358400
     23 NAP          4.2490     1.6610    -0.4750 nc         1 8UX      -0.648000
     24 H2          -3.3440    -0.5620     1.6070 h1         1 8UX       0.019700
     25 H3          -5.4060     0.9850    -0.0590 hc         1 8UX       0.009367
     26 H4          -5.6670     0.3890     1.5930 hc         1 8UX       0.009367
     27 H5          -4.4300     1.6130     1.2930 hc         1 8UX       0.009367
     28 H6          -3.3410     0.1230    -1.2830 hn         1 8UX       0.441000
     29 H8          -1.8330     1.2880     0.9510 h1         1 8UX       0.015700
     30 H10         -0.7060     0.8220    -1.8520 hc         1 8UX       0.025700
     31 H11         -0.0370     1.9360    -0.6640 hc         1 8UX       0.025700
     32 H12          0.2840     0.0230     0.9460 h1         1 8UX       0.035700
     33 H13         -0.2770    -1.1010    -0.3080 h1         1 8UX       0.035700
     34 H14          2.0230     0.7500    -0.5620 hn         1 8UX       0.374000
     35 H16          2.4870    -1.0930     0.9740 h1         1 8UX      -0.005300
     36 H18          4.6370    -1.6540    -0.2180 hc         1 8UX       0.050700
     37 H19          4.0550    -0.7780    -1.6210 hc         1 8UX       0.050700
     38 H20          5.5760    -0.1800     1.9410 h4         1 8UX       0.143000
     39 H21          5.9370     2.4000     2.1260 hn         1 8UX       0.318000
     40 H22          4.8440     3.6340     0.1750 h5         1 8UX       0.032100
@<TRIPOS>BOND
     1     1     2 1   
     2     2     3 1   
     3     2     4 1   
     4     4     5 1   
     5     4     6 1   
     6     4    24 1   
     7     5    25 1   
     8     5    26 1   
     9     5    27 1   
    10     6     7 1   
    11     6    28 1   
    12     7     8 1   
    13     7    11 1   
    14     7    29 1   
    15     8     9 1   
    16     8    10 1   
    17    11    12 1   
    18    11    30 1   
    19    11    31 1   
    20    12    13 1   
    21    12    32 1   
    22    12    33 1   
    23    13    14 1   
    24    13    34 1   
    25    14    15 1   
    26    14    18 1   
    27    14    35 1   
    28    15    16 1   
    29    15    17 1   
    30    18    19 1   
    31    18    36 1   
    32    18    37 1   
    33    19    20 2   
    34    19    23 1   
    35    20    21 1   
    36    20    38 1   
    37    21    22 1   
    38    21    39 1   
    39    22    23 2   
    40    22    40 1   
@<TRIPOS>SUBSTRUCTURE
     1 8UX         1 TEMP              0 ****  ****    0 ROOT
