@<TRIPOS>MOLECULE
8UX
   40    40     1     0     0
SMALL
bcc


@<TRIPOS>ATOM
      1 OXT         -4.7430    -2.3320     1.5120 o          1 8UX      -0.870300
      2 C           -4.3770    -1.7140     0.4910 c          1 8UX       0.936600
      3 O           -4.5860    -2.0540    -0.6920 o          1 8UX      -0.870300
      4 CA          -3.6550    -0.3710     0.7230 c3         1 8UX       0.060500
      5 CB          -4.7250     0.7030     0.9770 c3         1 8UX      -0.102100
      6 N           -2.7380    -0.0900    -0.3660 n7         1 8UX      -0.786200
      7 CAV         -2.0340     1.1760    -0.2810 c3         1 8UX       0.048500
      8 CAR         -2.7480     2.3600    -0.9750 c          1 8UX       0.903600
      9 OAF         -2.4380     3.5060    -0.5850 o          1 8UX      -0.873300
     10 OAC         -3.5340     2.0840    -1.9040 o          1 8UX      -0.873300
     11 CAK         -0.6300     1.0440    -0.8840 c3         1 8UX      -0.046400
     12 CAJ          0.2080    -0.0250    -0.2040 c3         1 8UX       0.164800
     13 NAN          1.5600    -0.0520    -0.7270 n7         1 8UX      -0.788200
     14 CAW          2.3830    -1.0850    -0.1400 c3         1 8UX       0.059500
     15 CAS          2.0240    -2.5070    -0.6380 c          1 8UX       0.932600
     16 OAG          2.4420    -3.4400     0.0830 o          1 8UX      -0.838800
     17 OAD          1.3950    -2.6220    -1.7040 o          1 8UX      -0.838800
     18 CAL          3.8660    -0.8250    -0.4570 c3         1 8UX      -0.104700
     19 CAT          4.4220     0.3890     0.2100 cc         1 8UX       0.363600
     20 CAI          5.2560     0.4420     1.2940 cd         1 8UX      -0.309600
     21 NAM          5.4430     1.7700     1.5520 na         1 8UX      -0.325900
     22 CAH          4.7360     2.4630     0.6420 cd         1 8UX       0.358400
     23 NAP          4.1080     1.6640    -0.1850 nc         1 8UX      -0.648000
     24 H2          -3.0590    -0.4600     1.6380 h1         1 8UX       0.019700
     25 H3          -5.3760     0.8160     0.1080 hc         1 8UX       0.009367
     26 H4          -5.3440     0.4360     1.8350 hc         1 8UX       0.009367
     27 H5          -4.2780     1.6760     1.1860 hc         1 8UX       0.009367
     28 H6          -3.2560    -0.1070    -1.2360 hn         1 8UX       0.385800
     29 H8          -1.9030     1.4290     0.7790 h1         1 8UX       0.015700
     30 H10         -0.7110     0.8150    -1.9530 hc         1 8UX       0.025700
     31 H11         -0.1220     2.0110    -0.8100 hc         1 8UX       0.025700
     32 H12          0.1850     0.1420     0.8890 h1         1 8UX       0.035700
     33 H13         -0.2580    -0.9950    -0.3730 h1         1 8UX       0.035700
     34 H14          1.9920     0.8490    -0.5500 hn         1 8UX       0.318800
     35 H16          2.2930    -1.1020     0.9610 h1         1 8UX      -0.005300
     36 H18          4.4430    -1.6930    -0.1380 hc         1 8UX       0.050700
     37 H19          3.9830    -0.7410    -1.5420 hc         1 8UX       0.050700
     38 H20          5.7150    -0.3320     1.8860 h4         1 8UX       0.161000
     39 H21          6.0120     2.1610     2.2850 hn         1 8UX       0.267700
     40 H22          4.7160     3.5420     0.6220 h5         1 8UX       0.032100
@<TRIPOS>BOND
     1     1     2 1   
     2     2     3 1   
     3     2     4 1   
     4     4     5 1   
     5     4     6 1   
     6     4    24 1   
     7     5    25 1   
     8     5    26 1   
     9     5    27 1   
    10     6     7 1   
    11     6    28 1   
    12     7     8 1   
    13     7    11 1   
    14     7    29 1   
    15     8     9 1   
    16     8    10 1   
    17    11    12 1   
    18    11    30 1   
    19    11    31 1   
    20    12    13 1   
    21    12    32 1   
    22    12    33 1   
    23    13    14 1   
    24    13    34 1   
    25    14    15 1   
    26    14    18 1   
    27    14    35 1   
    28    15    16 1   
    29    15    17 1   
    30    18    19 1   
    31    18    36 1   
    32    18    37 1   
    33    19    20 2   
    34    19    23 1   
    35    20    21 1   
    36    20    38 1   
    37    21    22 1   
    38    21    39 1   
    39    22    23 2   
    40    22    40 1   
@<TRIPOS>SUBSTRUCTURE
     1 8UX         1 TEMP              0 ****  ****    0 ROOT
