@<TRIPOS>MOLECULE
8UY
   25    27     1     0     0
SMALL
No Charge or Current Charge


@<TRIPOS>ATOM
      1 N1           5.9910    -0.4090     0.0260 n1         1 8UY      -0.443000
      2 C4           2.8420     1.0730     0.6090 ca         1 8UY      -0.078000
      3 C5           1.4510     1.2730     0.5810 ca         1 8UY      -0.078500
      4 C6           0.5880     0.3550    -0.0660 ca         1 8UY      -0.028000
      5 C7           1.1820    -0.7620    -0.7040 ca         1 8UY      -0.078500
      6 C8           2.5730    -0.9620    -0.6790 ca         1 8UY      -0.078000
      7 C10         -1.4390     1.8700     0.0950 cc         1 8UY      -0.148000
      8 C13         -3.2310    -0.1570    -0.1320 cd         1 8UY      -0.061000
      9 C15         -2.8700    -2.2160    -0.2210 cc         1 8UY       0.531200
     10 C3           3.4110    -0.0480    -0.0190 ca         1 8UY      -0.001000
     11 C9          -0.8880     0.5940    -0.0900 cd         1 8UY       0.001000
     12 C11         -2.8520     2.1570     0.1200 cc         1 8UY      -0.082000
     13 C12         -3.7770     1.1480     0.0010 cd         1 8UY      -0.086000
     14 N14         -3.8870    -1.2930    -0.1850 nc         1 8UY      -0.396300
     15 N16         -1.6220    -1.7590    -0.1930 nd         1 8UY      -0.600100
     16 N17         -1.8790    -0.4190    -0.1800 na         1 8UY       0.293400
     17 H1           3.4760     1.7900     1.1260 ha         1 8UY       0.131000
     18 H2           1.0540     2.1390     1.1040 ha         1 8UY       0.131000
     19 H3           0.5830    -1.4710    -1.2650 ha         1 8UY       0.131000
     20 H4           2.9990    -1.8280    -1.1840 ha         1 8UY       0.131000
     21 H5          -0.7910     2.7340     0.1850 ha         1 8UY       0.137000
     22 H6          -3.1260    -3.2690    -0.2560 h5         1 8UY       0.072800
     23 H7          -3.1760     3.1860     0.2430 ha         1 8UY       0.130000
     24 H8          -4.8460     1.3330     0.0360 ha         1 8UY       0.150000
     25 C2           4.8330    -0.2520     0.0070 cg         1 8UY       0.319000
@<TRIPOS>BOND
     1     1    25 3   
     2     2     3 ar  
     3     2    10 ar  
     4     2    17 1   
     5     3     4 ar  
     6     3    18 1   
     7     4     5 ar  
     8     4    11 1   
     9     5     6 ar  
    10     5    19 1   
    11     6    10 ar  
    12     6    20 1   
    13     7    11 2   
    14     7    12 1   
    15     7    21 1   
    16     8    13 1   
    17     8    14 2   
    18     8    16 1   
    19     9    14 1   
    20     9    15 2   
    21     9    22 1   
    22    10    25 1   
    23    11    16 1   
    24    12    13 2   
    25    12    23 1   
    26    13    24 1   
    27    15    16 1   
@<TRIPOS>SUBSTRUCTURE
     1 8UY         1 TEMP              0 ****  ****    0 ROOT
