@<TRIPOS>MOLECULE
8UY
   25    27     1     0     0
SMALL
bcc


@<TRIPOS>ATOM
      1 N1           5.8400    -0.4530    -0.0480 n1         1 8UY      -0.353800
      2 C4           2.7410     0.8900     0.8230 ca         1 8UY      -0.096000
      3 C5           1.3740     1.0960     0.8200 ca         1 8UY      -0.096500
      4 C6           0.5460     0.3600    -0.0270 ca         1 8UY      -0.028000
      5 C7           1.1070    -0.5930    -0.8780 ca         1 8UY      -0.096500
      6 C8           2.4730    -0.8010    -0.8870 ca         1 8UY      -0.096000
      7 C10         -1.3950     1.9270    -0.0620 cc         1 8UY      -0.166000
      8 C13         -3.1640    -0.1740    -0.0630 cd         1 8UY      -0.010300
      9 C15         -2.7330    -2.2130     0.0170 cc         1 8UY       0.531200
     10 C3           3.2910    -0.0600    -0.0340 ca         1 8UY      -0.001000
     11 C9          -0.8950     0.6560    -0.0390 cd         1 8UY       0.051700
     12 C11         -2.7850     2.1700    -0.0900 cc         1 8UY      -0.100000
     13 C12         -3.6750     1.1350    -0.0960 cd         1 8UY      -0.104000
     14 N14         -3.7610    -1.3580    -0.0320 nc         1 8UY      -0.396300
     15 N16         -1.5310    -1.6730     0.0200 nd         1 8UY      -0.600100
     16 N17         -1.8040    -0.3630    -0.0380 na         1 8UY       0.192000
     17 H1           3.3760     1.4580     1.4880 ha         1 8UY       0.149000
     18 H2           0.9460     1.8270     1.4940 ha         1 8UY       0.149000
     19 H3           0.4830    -1.1650    -1.5500 ha         1 8UY       0.149000
     20 H4           2.9060    -1.5320    -1.5570 ha         1 8UY       0.149000
     21 H5          -0.7040     2.7570    -0.0850 ha         1 8UY       0.155000
     22 H6          -2.8580    -3.2850     0.0540 h5         1 8UY       0.072800
     23 H7          -3.1390     3.1910    -0.1140 ha         1 8UY       0.148000
     24 H8          -4.7440     1.2860    -0.1180 ha         1 8UY       0.168000
     25 C2           4.7020    -0.2780    -0.0400 cg         1 8UY       0.229800
@<TRIPOS>BOND
     1     1    25 3   
     2     2     3 ar  
     3     2    10 ar  
     4     2    17 1   
     5     3     4 ar  
     6     3    18 1   
     7     4     5 ar  
     8     4    11 1   
     9     5     6 ar  
    10     5    19 1   
    11     6    10 ar  
    12     6    20 1   
    13     7    11 2   
    14     7    12 1   
    15     7    21 1   
    16     8    13 1   
    17     8    14 2   
    18     8    16 1   
    19     9    14 1   
    20     9    15 2   
    21     9    22 1   
    22    10    25 1   
    23    11    16 1   
    24    12    13 2   
    25    12    23 1   
    26    13    24 1   
    27    15    16 1   
@<TRIPOS>SUBSTRUCTURE
     1 8UY         1 TEMP              0 ****  ****    0 ROOT
