@<TRIPOS>MOLECULE
8UZ
   70    72     1     0     0
SMALL
abcg2


@<TRIPOS>ATOM
      1 O3           1.2430    -0.9850    -0.8380 os         1 8UZ      -0.450000
      2 C4          -1.9520    -2.7510     0.0430 c6         1 8UZ       0.146500
      3 C5          -1.4980    -4.1580    -0.3380 c6         1 8UZ      -0.115400
      4 O4           1.4520     0.9040     0.3820 os         1 8UZ      -0.473000
      5 C6          -0.0290    -4.4010    -0.0060 c6         1 8UZ       0.117500
      6 N1          -3.3460    -2.5750    -0.3280 n8         1 8UZ      -1.015200
      7 C7           0.8390    -3.3390    -0.6770 c6         1 8UZ       0.159300
      8 C8           0.3940    -1.9500    -0.2490 c6         1 8UZ       0.178300
      9 N2           0.4950    -5.7050    -0.3810 n8         1 8UZ      -1.013200
     10 C9           2.0910    -0.2810     0.0020 c6         1 8UZ       0.370300
     11 C10          2.2280     1.7020     1.2480 c6         1 8UZ       0.121300
     12 O6           4.3240     2.9280     1.3700 oh         1 8UZ      -0.691000
     13 C11          1.3620     2.8490     1.7440 c3         1 8UZ       0.173600
     14 C12          3.4910     2.1810     0.5160 c6         1 8UZ       0.148300
     15 N3           5.4580     1.3930    -0.7140 n8         1 8UZ      -0.973200
     16 C13          4.2800     0.9700     0.0200 c6         1 8UZ       0.160500
     17 O7           4.1000    -1.1460    -1.0440 oh         1 8UZ      -0.730000
     18 C14          3.3690     0.0260    -0.7730 c6         1 8UZ       0.108300
     19 O8          -1.1500     3.7750    -0.9070 oh         1 8UZ      -0.680000
     20 C15         -1.8370     1.5800    -1.6450 c6         1 8UZ       0.102500
     21 N4          -0.6490     1.5010    -2.4710 n8         1 8UZ      -1.021200
     22 O9          -2.3880     3.3060     1.6480 oh         1 8UZ      -0.733000
     23 C17         -2.7480     2.6350     0.4520 c6         1 8UZ       0.144300
     24 C1          -3.2770     1.2500     0.8320 c6         1 8UZ       0.171300
     25 C           -4.5890     1.3000     1.5950 c3         1 8UZ       0.153800
     26 N           -4.9900    -0.0350     2.0110 n8         1 8UZ      -0.995200
     27 C16         -1.5440     2.4950    -0.4640 c6         1 8UZ       0.132300
     28 C2          -2.3740     0.2460    -1.1240 c6         1 8UZ       0.361300
     29 O           -3.5070     0.4840    -0.3380 os         1 8UZ      -0.447000
     30 O1          -1.3820    -0.3990    -0.3840 os         1 8UZ      -0.478000
     31 C3          -1.0600    -1.7330    -0.6780 c6         1 8UZ       0.184300
     32 O2           2.1930    -3.5180    -0.3460 oh         1 8UZ      -0.728000
     33 H1          -1.7880    -2.6240     1.1270 h1         1 8UZ       0.029700
     34 H2          -2.1130    -4.8940     0.1860 hc         1 8UZ       0.052200
     35 H3          -1.6650    -4.3090    -1.4110 hc         1 8UZ       0.052200
     36 H4           0.1060    -4.3030     1.0770 h1         1 8UZ       0.070700
     37 H5          -3.8780    -3.3690     0.0090 hn         1 8UZ       0.418000
     38 H6          -3.7390    -1.7660     0.1390 hn         1 8UZ       0.418000
     39 H8           0.6990    -3.4220    -1.7690 h1         1 8UZ       0.041700
     40 H9           0.4510    -1.8780     0.8470 h1         1 8UZ       0.067700
     41 H10          0.1230    -6.4220     0.2280 hn         1 8UZ       0.407000
     42 H11          0.1980    -5.9430    -1.3210 hn         1 8UZ       0.407000
     43 H13          2.3450    -0.8740     0.8990 h2         1 8UZ       0.047700
     44 H14         -0.5180     2.6800     2.2720 ho         1 8UZ       0.530000
     45 H15          2.5510     1.1110     2.1230 h1         1 8UZ       0.062700
     46 H16          4.0330     3.8430     1.3650 ho         1 8UZ       0.502000
     47 H17          0.9640     3.3980     0.8830 h1         1 8UZ       0.037700
     48 H18          2.0010     3.5470     2.2950 h1         1 8UZ       0.037700
     49 H19          3.1770     2.7780    -0.3550 h1         1 8UZ       0.037700
     50 H20          5.9800     0.5770    -1.0100 hn         1 8UZ       0.400000
     51 H21          5.1770     1.8650    -1.5670 hn         1 8UZ       0.400000
     52 H23          4.6230     0.4220     0.9080 h1         1 8UZ       0.083700
     53 H24          3.4880    -1.8750    -1.2060 ho         1 8UZ       0.537000
     54 H25          3.0740     0.5360    -1.7060 h1         1 8UZ       0.046700
     55 H26         -0.5400     3.6180    -1.6410 ho         1 8UZ       0.475000
     56 H28          0.0570     0.9450    -2.0040 hn         1 8UZ       0.419000
     57 H29         -0.8540     1.0500    -3.3530 hn         1 8UZ       0.419000
     58 H31         -2.2310     4.2330     1.4410 ho         1 8UZ       0.522000
     59 H32         -3.5410     3.1870    -0.0740 h1         1 8UZ       0.051700
     60 H33         -2.5270     0.7580     1.4690 h1         1 8UZ       0.066700
     61 H34         -4.4790     2.0060     2.4260 h1         1 8UZ       0.045700
     62 H35         -5.3630     1.7100     0.9400 h1         1 8UZ       0.045700
     63 H36         -4.3790    -0.3540     2.7530 hn         1 8UZ       0.392500
     64 H37         -5.9150     0.0080     2.4190 hn         1 8UZ       0.392500
     65 H39         -0.7400     2.0290     0.1170 h1         1 8UZ       0.074700
     66 H40         -2.7110    -0.3790    -1.9580 h2         1 8UZ       0.082700
     67 H41         -1.1500    -1.9080    -1.7620 h1         1 8UZ       0.049700
     68 H42          2.3320    -4.4770    -0.3610 ho         1 8UZ       0.537000
     69 O5           0.3420     2.3800     2.5940 oh         1 8UZ      -0.729000
     70 H27         -2.6340     2.0310    -2.2480 h1         1 8UZ       0.076700
@<TRIPOS>BOND
     1     1     8 1   
     2     1    10 1   
     3     2     3 1   
     4     2     6 1   
     5     2    31 1   
     6     2    33 1   
     7     3     5 1   
     8     3    34 1   
     9     3    35 1   
    10     4    10 1   
    11     4    11 1   
    12     5     7 1   
    13     5     9 1   
    14     5    36 1   
    15     6    37 1   
    16     6    38 1   
    17     7     8 1   
    18     7    32 1   
    19     7    39 1   
    20     8    31 1   
    21     8    40 1   
    22     9    41 1   
    23     9    42 1   
    24    10    18 1   
    25    10    43 1   
    26    11    13 1   
    27    11    14 1   
    28    11    45 1   
    29    12    14 1   
    30    12    46 1   
    31    13    47 1   
    32    13    48 1   
    33    13    69 1   
    34    14    16 1   
    35    14    49 1   
    36    15    16 1   
    37    15    50 1   
    38    15    51 1   
    39    16    18 1   
    40    16    52 1   
    41    17    18 1   
    42    17    53 1   
    43    18    54 1   
    44    19    27 1   
    45    19    55 1   
    46    20    21 1   
    47    20    27 1   
    48    20    28 1   
    49    20    70 1   
    50    21    56 1   
    51    21    57 1   
    52    22    23 1   
    53    22    58 1   
    54    23    24 1   
    55    23    27 1   
    56    23    59 1   
    57    24    25 1   
    58    24    29 1   
    59    24    60 1   
    60    25    26 1   
    61    25    61 1   
    62    25    62 1   
    63    26    63 1   
    64    26    64 1   
    65    27    65 1   
    66    28    29 1   
    67    28    30 1   
    68    28    66 1   
    69    30    31 1   
    70    31    67 1   
    71    32    68 1   
    72    44    69 1   
@<TRIPOS>SUBSTRUCTURE
     1 8UZ         1 TEMP              0 ****  ****    0 ROOT
