@<TRIPOS>MOLECULE
8UZ
   70    72     1     0     0
SMALL
No Charge or Current Charge


@<TRIPOS>ATOM
      1 O3           1.4650    -1.0970    -1.0400 os         1 8UZ      -0.450000
      2 C4          -1.9740    -2.6850    -0.2130 c6         1 8UZ       0.146500
      3 C5          -1.5440    -4.1750    -0.3240 c6         1 8UZ      -0.115400
      4 O4           1.4630     0.7330     0.4360 os         1 8UZ      -0.473000
      5 C6          -0.1090    -4.3600     0.2160 c6         1 8UZ       0.117500
      6 N1          -3.3710    -2.5580    -0.6910 n8         1 8UZ      -1.015200
      7 C7           0.8810    -3.4670    -0.5680 c6         1 8UZ       0.159300
      8 C8           0.4900    -1.9710    -0.4060 c6         1 8UZ       0.178300
      9 N2           0.3500    -5.7730     0.1680 n8         1 8UZ      -1.013200
     10 C9           2.2680    -0.3320    -0.1200 c6         1 8UZ       0.370300
     11 C10          2.1420     1.5490     1.4300 c6         1 8UZ       0.121300
     12 O6           4.1640     2.9980     1.7040 oh         1 8UZ      -0.691000
     13 C11          1.1270     2.6010     1.9950 c3         1 8UZ       0.173600
     14 C12          3.3880     2.2250     0.7770 c6         1 8UZ       0.148300
     15 N3           5.5330     1.7530    -0.4410 n8         1 8UZ      -0.973200
     16 C13          4.3080     1.1370     0.1510 c6         1 8UZ       0.160500
     17 O7           4.3320    -0.7440    -1.4780 oh         1 8UZ      -0.730000
     18 C14          3.5020     0.2760    -0.8670 c6         1 8UZ       0.108300
     19 O8          -1.3510     3.8940    -1.2170 oh         1 8UZ      -0.680000
     20 C15         -2.1020     1.6950    -1.8750 c6         1 8UZ       0.102500
     21 N4          -1.0750     1.7570    -2.9740 n8         1 8UZ      -1.021200
     22 O9          -2.1900     3.3740     1.5560 oh         1 8UZ      -0.733000
     23 C17         -2.7040     2.6170     0.4380 c6         1 8UZ       0.144300
     24 C1          -3.0830     1.1540     0.8510 c6         1 8UZ       0.171300
     25 C           -4.2830     1.1240     1.8590 c3         1 8UZ       0.153800
     26 N           -4.6910    -0.2270     2.3420 n8         1 8UZ      -0.995200
     27 C16         -1.6400     2.5890    -0.6970 c6         1 8UZ       0.132300
     28 C2          -2.4210     0.2610    -1.3230 c6         1 8UZ       0.361300
     29 O           -3.4530     0.3620    -0.3170 os         1 8UZ      -0.447000
     30 O1          -1.2490    -0.3110    -0.7150 os         1 8UZ      -0.478000
     31 C3          -0.9560    -1.7130    -0.9400 c6         1 8UZ       0.184300
     32 O2           2.1900    -3.8030    -0.0960 oh         1 8UZ      -0.728000
     33 H1          -1.9890    -2.4150     0.8540 h1         1 8UZ       0.029700
     34 H2          -2.2380    -4.8090     0.2450 hc         1 8UZ       0.052200
     35 H3          -1.5980    -4.5050    -1.3720 hc         1 8UZ       0.052200
     36 H4          -0.0910    -4.0490     1.2740 h1         1 8UZ       0.070700
     37 H5          -3.9760    -3.1350    -0.0950 hn         1 8UZ       0.418000
     38 H6          -3.6780    -1.6000    -0.4650 hn         1 8UZ       0.418000
     39 H8           0.8060    -3.7230    -1.6360 h1         1 8UZ       0.041700
     40 H9           0.4680    -1.7510     0.6730 h1         1 8UZ       0.067700
     41 H10         -0.2210    -6.3320     0.8170 hn         1 8UZ       0.407000
     42 H11          0.1060    -6.1750    -0.7470 hn         1 8UZ       0.407000
     43 H13          2.6260    -0.9890     0.6890 h2         1 8UZ       0.047700
     44 H14         -0.8360     2.5300     2.2260 ho         1 8UZ       0.530000
     45 H15          2.4670     0.9030     2.2590 h1         1 8UZ       0.062700
     46 H16          5.0710     2.9750     1.3090 ho         1 8UZ       0.502000
     47 H17          0.8450     3.2750     1.1740 h1         1 8UZ       0.037700
     48 H18          1.6440     3.2110     2.7470 h1         1 8UZ       0.037700
     49 H19          3.0330     2.8810    -0.0320 h1         1 8UZ       0.037700
     50 H20          6.0680     0.9880    -0.8730 hn         1 8UZ       0.400000
     51 H21          5.2570     2.3090    -1.2590 hn         1 8UZ       0.400000
     52 H23          4.6420     0.4690     0.9620 h1         1 8UZ       0.083700
     53 H24          3.7080    -1.4290    -1.8230 ho         1 8UZ       0.537000
     54 H25          3.1150     0.9440    -1.6510 h1         1 8UZ       0.046700
     55 H26         -1.0510     3.6830    -2.1360 ho         1 8UZ       0.475000
     56 H28         -0.2670     1.1910    -2.6780 hn         1 8UZ       0.419000
     57 H29         -1.4220     1.2450    -3.7950 hn         1 8UZ       0.419000
     58 H31         -2.0910     4.2990     1.2160 ho         1 8UZ       0.522000
     59 H32         -3.6120     3.1000     0.0460 h1         1 8UZ       0.051700
     60 H33         -2.2190     0.6830     1.3420 h1         1 8UZ       0.066700
     61 H34         -4.0140     1.7310     2.7350 h1         1 8UZ       0.045700
     62 H35         -5.1510     1.5990     1.3800 h1         1 8UZ       0.045700
     63 H36         -3.9150    -0.6440     2.8690 hn         1 8UZ       0.392500
     64 H37         -5.4330    -0.1230     3.0450 hn         1 8UZ       0.392500
     65 H39         -0.7200     2.1480    -0.2870 h1         1 8UZ       0.074700
     66 H40         -2.7690    -0.3700    -2.1560 h2         1 8UZ       0.082700
     67 H41         -0.9700    -1.9100    -2.0220 h1         1 8UZ       0.049700
     68 H42          2.0410    -4.7480     0.1770 ho         1 8UZ       0.537000
     69 O5          -0.0550     2.0140     2.5760 oh         1 8UZ      -0.729000
     70 H27         -3.0390     2.1120    -2.2790 h1         1 8UZ       0.076700
@<TRIPOS>BOND
     1     1     8 1   
     2     1    10 1   
     3     2     3 1   
     4     2     6 1   
     5     2    31 1   
     6     2    33 1   
     7     3     5 1   
     8     3    34 1   
     9     3    35 1   
    10     4    10 1   
    11     4    11 1   
    12     5     7 1   
    13     5     9 1   
    14     5    36 1   
    15     6    37 1   
    16     6    38 1   
    17     7     8 1   
    18     7    32 1   
    19     7    39 1   
    20     8    31 1   
    21     8    40 1   
    22     9    41 1   
    23     9    42 1   
    24    10    18 1   
    25    10    43 1   
    26    11    13 1   
    27    11    14 1   
    28    11    45 1   
    29    12    14 1   
    30    12    46 1   
    31    13    47 1   
    32    13    48 1   
    33    13    69 1   
    34    14    16 1   
    35    14    49 1   
    36    15    16 1   
    37    15    50 1   
    38    15    51 1   
    39    16    18 1   
    40    16    52 1   
    41    17    18 1   
    42    17    53 1   
    43    18    54 1   
    44    19    27 1   
    45    19    55 1   
    46    20    21 1   
    47    20    27 1   
    48    20    28 1   
    49    20    70 1   
    50    21    56 1   
    51    21    57 1   
    52    22    23 1   
    53    22    58 1   
    54    23    24 1   
    55    23    27 1   
    56    23    59 1   
    57    24    25 1   
    58    24    29 1   
    59    24    60 1   
    60    25    26 1   
    61    25    61 1   
    62    25    62 1   
    63    26    63 1   
    64    26    64 1   
    65    27    65 1   
    66    28    29 1   
    67    28    30 1   
    68    28    66 1   
    69    30    31 1   
    70    31    67 1   
    71    32    68 1   
    72    44    69 1   
@<TRIPOS>SUBSTRUCTURE
     1 8UZ         1 TEMP              0 ****  ****    0 ROOT
