@<TRIPOS>MOLECULE
8V0
   29    29     1     0     0
SMALL
abcg2


@<TRIPOS>ATOM
      1 C01        -53.0910    29.5620     3.6940 cc         1 8V0      -0.211000
      2 C02        -51.9370    29.0600     3.1520 cd         1 8V0       0.282300
      3 C04        -53.3020    27.3980     3.3390 cc         1 8V0       0.372400
      4 C06        -50.6870    29.7890     2.7910 c3         1 8V0      -0.087700
      5 C07        -50.5050    29.9790     1.2740 c3         1 8V0      -0.029300
      6 C08        -51.7050    30.7550     0.6640 c          1 8V0       0.706000
      7 C14        -47.2590    31.3800    -0.1510 c3         1 8V0      -0.160400
      8 C15        -45.9470    30.6290    -0.3660 c3         1 8V0       0.153800
      9 N03        -52.0840    27.7010     2.9350 nd         1 8V0      -0.669000
     10 N05        -53.9490    28.4920     3.8070 na         1 8V0      -0.320500
     11 N11        -49.2500    30.6750     1.0360 ns         1 8V0      -0.460900
     12 N16        -44.8430    31.5820    -0.5370 n8         1 8V0      -1.010200
     13 O09        -51.7820    31.9760     0.9480 o          1 8V0      -0.727000
     14 O10        -52.5000    30.0940    -0.0470 o          1 8V0      -0.727000
     15 O13        -48.6410    29.5310    -0.8280 o          1 8V0      -0.636100
     16 H1         -53.3700    30.5570     3.9950 h4         1 8V0       0.157000
     17 H2         -53.7540    26.4190     3.3250 h5         1 8V0       0.036100
     18 H3         -49.8180    29.2460     3.1710 hc         1 8V0       0.032700
     19 H4         -50.6930    30.7720     3.2650 hc         1 8V0       0.032700
     20 H5         -50.4340    29.0090     0.7880 h1         1 8V0       0.085700
     21 H6         -47.1750    32.0280     0.7230 hc         1 8V0       0.056200
     22 H7         -47.4540    32.0200    -1.0180 hc         1 8V0       0.056200
     23 H8         -45.7330    30.0180     0.5150 h1         1 8V0       0.040200
     24 H9         -46.0640    29.9470    -1.2140 h1         1 8V0       0.040200
     25 H11        -54.8880    28.5170     4.1730 hn         1 8V0       0.334000
     26 H12        -49.0720    31.4970     1.5930 hn         1 8V0       0.299500
     27 H13        -43.9690    31.0740    -0.6320 hn         1 8V0       0.384000
     28 H14        -44.9660    32.0910    -1.4070 hn         1 8V0       0.384000
     29 C12        -48.4440    30.4420    -0.0170 c          1 8V0       0.588100
@<TRIPOS>BOND
     1     1     2 2   
     2     1    10 1   
     3     1    16 1   
     4     2     4 1   
     5     2     9 1   
     6     3     9 2   
     7     3    10 1   
     8     3    17 1   
     9     4     5 1   
    10     4    18 1   
    11     4    19 1   
    12     5     6 1   
    13     5    11 1   
    14     5    20 1   
    15     6    13 1   
    16     6    14 1   
    17     7     8 1   
    18     7    21 1   
    19     7    22 1   
    20     7    29 1   
    21     8    12 1   
    22     8    23 1   
    23     8    24 1   
    24    10    25 1   
    25    11    26 1   
    26    11    29 1   
    27    12    27 1   
    28    12    28 1   
    29    15    29 2   
@<TRIPOS>SUBSTRUCTURE
     1 8V0         1 TEMP              0 ****  ****    0 ROOT
