@<TRIPOS>MOLECULE
8V0
   29    29     1     0     0
SMALL
No Charge or Current Charge


@<TRIPOS>ATOM
      1 C01        -52.5210    29.3120     3.9230 cc         1 8V0      -0.211000
      2 C02        -51.7390    28.8710     2.8870 cd         1 8V0       0.282300
      3 C04        -53.2860    27.3820     3.1180 cc         1 8V0       0.372400
      4 C06        -50.5120    29.5350     2.3180 c3         1 8V0      -0.087700
      5 C07        -50.7860    30.2480     0.9700 c3         1 8V0      -0.029300
      6 C08        -51.9360    31.2960     1.0800 c          1 8V0       0.706000
      7 C14        -47.3670    31.1130    -0.6450 c3         1 8V0      -0.160400
      8 C15        -46.1400    30.8470     0.2410 c3         1 8V0       0.153800
      9 N03        -52.2160    27.6720     2.3960 nd         1 8V0      -0.669000
     10 N05        -53.5070    28.3560     4.0610 na         1 8V0      -0.320500
     11 N11        -49.5590    30.8850     0.4350 ns         1 8V0      -0.460900
     12 N16        -45.0120    31.7140    -0.1490 n8         1 8V0      -1.010200
     13 O09        -51.7540    32.2910     1.7690 o          1 8V0      -0.727000
     14 O10        -52.9340    31.1350     0.3900 o          1 8V0      -0.727000
     15 O13        -48.5770    29.0290    -0.4590 o          1 8V0      -0.636100
     16 H1         -52.4480    30.2000     4.5400 h4         1 8V0       0.157000
     17 H2         -53.9230    26.5100     3.0150 h5         1 8V0       0.036100
     18 H3         -49.7220    28.7890     2.1800 hc         1 8V0       0.032700
     19 H4         -50.1230    30.2650     3.0380 hc         1 8V0       0.032700
     20 H5         -51.1210    29.4930     0.2470 h1         1 8V0       0.085700
     21 H6         -47.6420    32.1710    -0.5560 hc         1 8V0       0.056200
     22 H7         -47.1090    30.8770    -1.6840 hc         1 8V0       0.056200
     23 H8         -46.3930    31.0440     1.2930 h1         1 8V0       0.040200
     24 H9         -45.8330    29.7950     0.1480 h1         1 8V0       0.040200
     25 H11        -54.2670    28.3550     4.7320 hn         1 8V0       0.334000
     26 H12        -49.4410    31.8830     0.5780 hn         1 8V0       0.299500
     27 H13        -44.1920    31.4730     0.4220 hn         1 8V0       0.384000
     28 H14        -44.7200    31.4740    -1.1040 hn         1 8V0       0.384000
     29 C12        -48.5360    30.2270    -0.2130 c          1 8V0       0.588100
@<TRIPOS>BOND
     1     1     2 2   
     2     1    10 1   
     3     1    16 1   
     4     2     4 1   
     5     2     9 1   
     6     3     9 2   
     7     3    10 1   
     8     3    17 1   
     9     4     5 1   
    10     4    18 1   
    11     4    19 1   
    12     5     6 1   
    13     5    11 1   
    14     5    20 1   
    15     6    13 1   
    16     6    14 1   
    17     7     8 1   
    18     7    21 1   
    19     7    22 1   
    20     7    29 1   
    21     8    12 1   
    22     8    23 1   
    23     8    24 1   
    24    10    25 1   
    25    11    26 1   
    26    11    29 1   
    27    12    27 1   
    28    12    28 1   
    29    15    29 2   
@<TRIPOS>SUBSTRUCTURE
     1 8V0         1 TEMP              0 ****  ****    0 ROOT
