@<TRIPOS>MOLECULE
8V1
   56    60     1     0     0
SMALL
abcg2


@<TRIPOS>ATOM
      1 O1           5.4280     0.2430     1.3220 o          1 8V1      -0.552100
      2 C15          5.3780     0.4500     0.1250 c          1 8V1       0.611100
      3 C16          6.4770     0.0260    -0.8370 c5         1 8V1       0.072500
      4 N2           7.7380    -0.1790    -0.1430 n7         1 8V1      -0.814400
      5 C19          7.9270    -1.6220    -0.0370 c5         1 8V1       0.140800
      6 C18          7.3180    -2.2030    -1.3100 c5         1 8V1      -0.115400
      7 C17          6.0780    -1.3310    -1.4990 c5         1 8V1      -0.102400
      8 N1           4.3190     1.0280    -0.5010 ns         1 8V1      -0.156000
      9 C12          3.0650     1.3450     0.0400 ca         1 8V1      -0.055000
     10 C11          2.8590     1.6680     1.3810 ca         1 8V1      -0.112500
     11 C10          1.5870     1.9760     1.8370 ca         1 8V1      -0.136000
     12 C13          1.9710     1.3640    -0.8230 ca         1 8V1      -0.112500
     13 C14          0.7000     1.6840    -0.3730 ca         1 8V1      -0.136000
     14 C9           0.5020     1.9850     0.9690 ca         1 8V1       0.113100
     15 O           -0.7060     2.3220     1.5010 os         1 8V1      -0.251200
     16 C7          -1.8490     2.0500     0.7830 ca         1 8V1       0.062100
     17 C6          -2.5150     3.1190     0.1700 ca         1 8V1      -0.097000
     18 C5          -3.7010     2.9110    -0.5080 ca         1 8V1      -0.120000
     19 C4          -4.1930     1.6090    -0.5700 ca         1 8V1      -0.052200
     20 N           -5.3320     1.1280    -1.1490 na         1 8V1      -0.083700
     21 C           -6.2780     1.9110    -1.9050 c3         1 8V1       0.065900
     22 C8          -2.3260     0.7570     0.7220 ca         1 8V1      -0.068000
     23 C3          -3.5150     0.5220     0.0250 ca         1 8V1      -0.079800
     24 C2          -4.2990    -0.6490    -0.2320 cc         1 8V1      -0.038400
     25 C1          -5.3850    -0.2210    -0.9510 cd         1 8V1      -0.154100
     26 C20         -4.0110    -2.0110     0.1850 cc         1 8V1      -0.128800
     27 C22         -4.9070    -3.0000     0.5440 cd         1 8V1      -0.172000
     28 N4          -4.1890    -4.0970     0.8420 na         1 8V1       0.131800
     29 C23         -4.6900    -5.3910     1.2390 c3         1 8V1       0.074900
     30 N3          -2.8840    -3.8990     0.7050 nd         1 8V1      -0.526800
     31 C21         -2.7590    -2.6450     0.3100 cc         1 8V1       0.250900
     32 H16          6.5980     0.8000    -1.6000 h1         1 8V1       0.055700
     33 H1           4.3840     1.1060    -1.5050 hn         1 8V1       0.143000
     34 H2           8.4820     0.2040    -0.7120 hn         1 8V1       0.405000
     35 H171         5.2220    -1.7810    -0.9910 hc         1 8V1       0.054700
     36 H172         5.7970    -1.2020    -2.5440 hc         1 8V1       0.054700
     37 H191         8.9820    -1.8610     0.0950 h1         1 8V1       0.064200
     38 H192         7.3920    -1.9960     0.8410 h1         1 8V1       0.064200
     39 H181         8.0120    -2.0780    -2.1450 hc         1 8V1       0.050200
     40 H182         7.0760    -3.2640    -1.2320 hc         1 8V1       0.050200
     41 H11          3.6790     1.6850     2.0810 ha         1 8V1       0.125500
     42 H13          2.1080     1.1220    -1.8700 ha         1 8V1       0.125500
     43 H10          1.4390     2.2170     2.8820 ha         1 8V1       0.128500
     44 H14         -0.1210     1.6870    -1.0780 ha         1 8V1       0.128500
     45 H6          -2.0990     4.1150     0.2410 ha         1 8V1       0.126000
     46 H8          -1.7930    -0.0460     1.2160 ha         1 8V1       0.135000
     47 H5          -4.2190     3.7400    -0.9730 ha         1 8V1       0.117000
     48 HC1         -5.8530     2.2390    -2.8540 h1         1 8V1       0.049033
     49 HC2         -7.1590     1.3090    -2.1090 h1         1 8V1       0.049033
     50 HC3         -6.5870     2.7890    -1.3390 h1         1 8V1       0.049033
     51 HA          -6.2040    -0.7970    -1.3540 h4         1 8V1       0.211000
     52 H22         -5.9830    -2.9880     0.6160 h4         1 8V1       0.150000
     53 H21         -1.7800    -2.2350     0.1130 h4         1 8V1       0.040100
     54 H231        -4.5510    -6.1200     0.4420 h1         1 8V1       0.055367
     55 H232        -4.1680    -5.7330     2.1290 h1         1 8V1       0.055367
     56 H233        -5.7500    -5.3090     1.4610 h1         1 8V1       0.055367
@<TRIPOS>BOND
     1     1     2 2   
     2     2     3 1   
     3     2     8 1   
     4     3     4 1   
     5     3     7 1   
     6     3    32 1   
     7     4     5 1   
     8     4    34 1   
     9     5     6 1   
    10     5    37 1   
    11     5    38 1   
    12     6     7 1   
    13     6    39 1   
    14     6    40 1   
    15     7    35 1   
    16     7    36 1   
    17     8     9 1   
    18     8    33 1   
    19     9    10 ar  
    20     9    12 ar  
    21    10    11 ar  
    22    10    41 1   
    23    11    14 ar  
    24    11    43 1   
    25    12    13 ar  
    26    12    42 1   
    27    13    14 ar  
    28    13    44 1   
    29    14    15 1   
    30    15    16 1   
    31    16    17 ar  
    32    16    22 ar  
    33    17    18 ar  
    34    17    45 1   
    35    18    19 ar  
    36    18    47 1   
    37    19    20 1   
    38    19    23 ar  
    39    20    21 1   
    40    20    25 1   
    41    21    48 1   
    42    21    49 1   
    43    21    50 1   
    44    22    23 ar  
    45    22    46 1   
    46    23    24 1   
    47    24    25 2   
    48    24    26 1   
    49    25    51 1   
    50    26    27 2   
    51    26    31 1   
    52    27    28 1   
    53    27    52 1   
    54    28    29 1   
    55    28    30 1   
    56    29    54 1   
    57    29    55 1   
    58    29    56 1   
    59    30    31 2   
    60    31    53 1   
@<TRIPOS>SUBSTRUCTURE
     1 8V1         1 TEMP              0 ****  ****    0 ROOT
