@<TRIPOS>MOLECULE
8V1
   56    60     1     0     0
SMALL
No Charge or Current Charge


@<TRIPOS>ATOM
      1 O1           5.4810     0.2880     1.2140 o          1 8V1      -0.552100
      2 C15          5.1890    -0.0400     0.0660 c          1 8V1       0.611100
      3 C16          6.0940    -0.8630    -0.9390 c5         1 8V1       0.072500
      4 N2           7.4770    -0.3050    -1.1570 n7         1 8V1      -0.814400
      5 C19          8.3270    -1.0300    -0.1900 c5         1 8V1       0.140800
      6 C18          7.8600    -2.4820    -0.4110 c5         1 8V1      -0.115400
      7 C17          6.3180    -2.3050    -0.3600 c5         1 8V1      -0.102400
      8 N1           3.9920     0.2680    -0.5750 ns         1 8V1      -0.156000
      9 C12          2.8310     0.9740    -0.1510 ca         1 8V1      -0.055000
     10 C11          2.6820     1.5280     1.1410 ca         1 8V1      -0.112500
     11 C10          1.5030     2.2110     1.4880 ca         1 8V1      -0.136000
     12 C13          1.7830     1.1200    -1.0810 ca         1 8V1      -0.112500
     13 C14          0.6050     1.8030    -0.7330 ca         1 8V1      -0.136000
     14 C9           0.4600     2.3410     0.5590 ca         1 8V1       0.113100
     15 O           -0.6810     3.0210     0.9240 os         1 8V1      -0.251200
     16 C7          -1.9440     2.6170     0.5510 ca         1 8V1       0.062100
     17 C6          -2.9200     3.6010     0.2810 ca         1 8V1      -0.097000
     18 C5          -4.2270     3.2250    -0.0910 ca         1 8V1      -0.120000
     19 C4          -4.5260     1.8560    -0.1780 ca         1 8V1      -0.052200
     20 N           -5.7340     1.2680    -0.5190 na         1 8V1      -0.083700
     21 C           -6.9530     2.0120    -0.8670 c3         1 8V1       0.065900
     22 C8          -2.2750     1.2440     0.4700 ca         1 8V1      -0.068000
     23 C3          -3.5840     0.8950     0.0930 ca         1 8V1      -0.079800
     24 C2          -4.2270    -0.3880    -0.0870 cc         1 8V1      -0.038400
     25 C1          -5.5430    -0.1280    -0.4590 cd         1 8V1      -0.154100
     26 C20         -3.7320    -1.7350     0.0540 cc         1 8V1      -0.128800
     27 C22         -4.4780    -2.8580    -0.1510 cd         1 8V1      -0.172000
     28 N4          -3.5960    -3.9160     0.0950 na         1 8V1       0.131800
     29 C23         -3.9100    -5.3500     0.0110 c3         1 8V1       0.074900
     30 N3          -2.3230    -3.4870     0.4450 nd         1 8V1      -0.526800
     31 C21         -2.4440    -2.1740     0.4090 cc         1 8V1       0.250900
     32 H16          5.5730    -0.9170    -1.9060 h1         1 8V1       0.055700
     33 H1           3.9320    -0.0770    -1.5250 hn         1 8V1       0.143000
     34 H2           7.7890    -0.5730    -2.1000 hn         1 8V1       0.405000
     35 H171         5.9530    -2.3940     0.6700 hc         1 8V1       0.054700
     36 H172         5.7970    -3.0710    -0.9460 hc         1 8V1       0.054700
     37 H191         9.3980    -0.8970    -0.3990 h1         1 8V1       0.064200
     38 H192         8.1360    -0.6960     0.8410 h1         1 8V1       0.064200
     39 H181         8.1920    -2.8670    -1.3820 hc         1 8V1       0.050200
     40 H182         8.2320    -3.1650     0.3610 hc         1 8V1       0.050200
     41 H11          3.4640     1.4430     1.8890 ha         1 8V1       0.125500
     42 H13          1.8810     0.7050    -2.0830 ha         1 8V1       0.125500
     43 H10          1.3940     2.6360     2.4830 ha         1 8V1       0.128500
     44 H14         -0.1900     1.9160    -1.4660 ha         1 8V1       0.128500
     45 H6          -2.6600     4.6540     0.3570 ha         1 8V1       0.126000
     46 H8          -1.5310     0.4940     0.7010 ha         1 8V1       0.135000
     47 H5          -4.9790     3.9820    -0.3020 ha         1 8V1       0.117000
     48 HC1         -6.7600     2.6430    -1.7440 h1         1 8V1       0.049033
     49 HC2         -7.7630     1.3100    -1.0990 h1         1 8V1       0.049033
     50 HC3         -7.2520     2.6440    -0.0220 h1         1 8V1       0.049033
     51 HA          -6.3460    -0.8200    -0.6850 h4         1 8V1       0.211000
     52 H22         -5.5130    -3.0010    -0.4370 h4         1 8V1       0.150000
     53 H21         -1.5730    -1.5840     0.6460 h4         1 8V1       0.040100
     54 H231        -3.2710    -5.8210    -0.7450 h1         1 8V1       0.055367
     55 H232        -3.7340    -5.8210     0.9850 h1         1 8V1       0.055367
     56 H233        -4.9620    -5.4830    -0.2710 h1         1 8V1       0.055367
@<TRIPOS>BOND
     1     1     2 2   
     2     2     3 1   
     3     2     8 1   
     4     3     4 1   
     5     3     7 1   
     6     3    32 1   
     7     4     5 1   
     8     4    34 1   
     9     5     6 1   
    10     5    37 1   
    11     5    38 1   
    12     6     7 1   
    13     6    39 1   
    14     6    40 1   
    15     7    35 1   
    16     7    36 1   
    17     8     9 1   
    18     8    33 1   
    19     9    10 ar  
    20     9    12 ar  
    21    10    11 ar  
    22    10    41 1   
    23    11    14 ar  
    24    11    43 1   
    25    12    13 ar  
    26    12    42 1   
    27    13    14 ar  
    28    13    44 1   
    29    14    15 1   
    30    15    16 1   
    31    16    17 ar  
    32    16    22 ar  
    33    17    18 ar  
    34    17    45 1   
    35    18    19 ar  
    36    18    47 1   
    37    19    20 1   
    38    19    23 ar  
    39    20    21 1   
    40    20    25 1   
    41    21    48 1   
    42    21    49 1   
    43    21    50 1   
    44    22    23 ar  
    45    22    46 1   
    46    23    24 1   
    47    24    25 2   
    48    24    26 1   
    49    25    51 1   
    50    26    27 2   
    51    26    31 1   
    52    27    28 1   
    53    27    52 1   
    54    28    29 1   
    55    28    30 1   
    56    29    54 1   
    57    29    55 1   
    58    29    56 1   
    59    30    31 2   
    60    31    53 1   
@<TRIPOS>SUBSTRUCTURE
     1 8V1         1 TEMP              0 ****  ****    0 ROOT
