@<TRIPOS>MOLECULE
8V2
   91    97     1     0     0
SMALL
abcg2


@<TRIPOS>ATOM
      1 O2           7.4570    -1.1180     2.3030 os         1 8V2      -0.437100
      2 C7           5.2100     0.7390    -3.5080 c2         1 8V2      -0.188200
      3 O3          -0.7910     0.3090    -0.0230 o          1 8V2      -0.565000
      4 C16         -6.1500     1.0690    -2.9390 ca         1 8V2      -0.093000
      5 C19         -7.3100    -1.4130    -3.3000 ca         1 8V2      -0.108000
      6 O5          -5.2180     3.0280    -0.4840 o          1 8V2      -0.590100
      7 C22          2.6920     2.6090    -1.4340 c5         1 8V2       0.110000
      8 C1           6.6130    -1.5080     1.3630 c          1 8V2       0.592100
      9 C10          1.2740     1.7850     1.0090 c5         1 8V2       0.035700
     10 C11         -3.6530     0.4790     1.0710 c          1 8V2       0.590100
     11 C12         -4.8780     0.2020     0.1900 c3         1 8V2       0.058700
     12 C13         -4.4640     0.1900    -1.2970 c3         1 8V2      -0.038100
     13 C14         -5.6270    -0.0120    -2.2290 ca         1 8V2      -0.063300
     14 C15         -6.2320    -1.2490    -2.4420 ca         1 8V2       0.119000
     15 C17         -7.2240     0.9290    -3.8030 ca         1 8V2      -0.110000
     16 C18         -7.8110    -0.3150    -3.9810 ca         1 8V2      -0.105000
     17 C2           7.0930    -1.0950    -0.0160 c5         1 8V2       0.055700
     18 C20          2.2260     0.8370     0.2970 c          1 8V2       0.613100
     19 C21          3.9900     0.5830    -1.3240 c5         1 8V2       0.038700
     20 C23          3.3510     2.3580    -2.7850 c5         1 8V2      -0.090400
     21 C24          1.0870     2.6620     3.2510 c5         1 8V2      -0.089400
     22 C25          5.1070     0.2230    -0.3730 c          1 8V2       0.580000
     23 C26         -1.8000     0.3740     3.4360 c2         1 8V2      -0.182200
     24 C27          0.4720     1.2660     3.2170 c5         1 8V2       0.148900
     25 C28         -0.8090     1.0830     3.9540 c2         1 8V2      -0.224200
     26 C29         -1.7230    -2.5980     1.2360 c5         1 8V2      -0.093400
     27 C3           7.6770    -2.2940    -0.7710 c5         1 8V2      -0.086400
     28 C30         -3.0970    -1.9720     1.0440 c5         1 8V2       0.106000
     29 C31         -0.6820     0.3750     1.1920 c          1 8V2       0.582000
     30 C33         -7.2800     3.1070     0.7090 c3         1 8V2      -0.182100
     31 C34         -1.1330    -1.7880     2.3790 c5         1 8V2      -0.076400
     32 C35         -1.6470    -0.3520     2.1310 c5         1 8V2       0.078600
     33 C4           7.3720    -1.9590    -2.2200 c5         1 8V2      -0.091400
     34 C5           5.9760    -1.3270    -2.1720 c5         1 8V2       0.158900
     35 C6           5.7700    -0.4610    -3.3860 c2         1 8V2      -0.236200
     36 C8           4.5610     1.5080    -2.4060 c5         1 8V2      -0.048500
     37 C87          7.1620    -1.5010     3.6470 c3         1 8V2       0.153900
     38 C9           2.0350     2.6270     2.0560 c5         1 8V2      -0.086400
     39 N1           5.9840    -0.6750    -0.8550 n          1 8V2      -0.407800
     40 N2           2.9400     1.3600    -0.7160 n          1 8V2      -0.404800
     41 N3           0.3030     1.0550     1.7880 n          1 8V2      -0.384800
     42 N4          -5.9510     1.1140     0.5010 ns         1 8V2      -0.499900
     43 N5          -2.9040    -0.5780     1.4340 n          1 8V2      -0.400800
     44 O1           5.6320    -2.1750     1.5630 o          1 8V2      -0.464000
     45 O4          -3.3720     1.6130     1.4190 o          1 8V2      -0.572100
     46 O6           2.3850    -0.3100     0.6780 o          1 8V2      -0.576100
     47 O7           5.2600     0.7590     0.7130 o          1 8V2      -0.552000
     48 CL          -5.6270    -2.6690    -1.6390 cl         1 8V2      -0.226000
     49 H7           5.2110     1.2010    -4.4890 ha         1 8V2       0.180000
     50 H16         -5.7000     2.0430    -2.8010 ha         1 8V2       0.139000
     51 H19         -7.7510    -2.3910    -3.4370 ha         1 8V2       0.126000
     52 H93          3.1510     3.4590    -0.9210 h1         1 8V2       0.054200
     53 H22          1.6250     2.8080    -1.5330 h1         1 8V2       0.054200
     54 H10          0.7560     2.4350     0.3000 h1         1 8V2       0.079700
     55 H12         -5.2770    -0.7840     0.4340 h1         1 8V2       0.059700
     56 H13         -3.9700     1.1260    -1.5450 hc         1 8V2       0.084200
     57 H36         -3.7240    -0.6000    -1.4410 hc         1 8V2       0.084200
     58 H17         -7.6000     1.7910    -4.3380 ha         1 8V2       0.118000
     59 H18         -8.6520    -0.4380    -4.6510 ha         1 8V2       0.116000
     60 H25          7.8350    -0.2970     0.0740 h1         1 8V2       0.083700
     61 H21          3.5830    -0.3240    -1.7870 h1         1 8V2       0.084700
     62 H94          2.6760     1.7980    -3.4370 hc         1 8V2       0.059700
     63 H23          3.6270     3.2830    -3.2900 hc         1 8V2       0.059700
     64 H4B          0.3070     3.4140     3.1090 hc         1 8V2       0.059200
     65 H24          1.5970     2.8680     4.1910 hc         1 8V2       0.059200
     66 H26         -2.7210     0.2120     3.9840 ha         1 8V2       0.189000
     67 H27          1.2140     0.5550     3.6090 h1         1 8V2       0.068700
     68 H28         -0.8880     1.5210     4.9410 ha         1 8V2       0.189000
     69 H38         -1.7900    -3.6600     1.4660 hc         1 8V2       0.065200
     70 H29         -1.1240    -2.4880     0.3320 hc         1 8V2       0.065200
     71 H31          8.7390    -2.4210    -0.5720 hc         1 8V2       0.065200
     72 H32          7.1640    -3.2120    -0.4810 hc         1 8V2       0.065200
     73 H30         -3.4350    -2.0650     0.0150 h1         1 8V2       0.047200
     74 H37         -3.8420    -2.4490     1.6880 h1         1 8V2       0.047200
     75 H35         -7.8350     3.5310    -0.1280 hc         1 8V2       0.057367
     76 H33         -7.9470     2.4550     1.2690 hc         1 8V2       0.057367
     77 H34         -6.9870     3.9350     1.3540 hc         1 8V2       0.057367
     78 H4A         -1.5220    -2.1440     3.3370 hc         1 8V2       0.065700
     79 H39         -0.0450    -1.8250     2.4320 hc         1 8V2       0.065700
     80 H41          8.0900    -1.2290    -2.6020 hc         1 8V2       0.057700
     81 H42          7.3960    -2.8270    -2.8770 hc         1 8V2       0.057700
     82 H5           5.2260    -2.1290    -2.1770 h1         1 8V2       0.072700
     83 H6           6.1550    -0.9240    -4.2890 ha         1 8V2       0.178000
     84 H8           5.2950     2.1810    -1.9450 hc         1 8V2       0.077700
     85 H87          7.9700    -1.1060     4.2550 h1         1 8V2       0.047700
     86 H95          6.2170    -1.0720     3.9800 h1         1 8V2       0.047700
     87 H96          7.1240    -2.5840     3.7560 h1         1 8V2       0.047700
     88 H92          2.9700     2.1350     2.3320 hc         1 8V2       0.065700
     89 H91          2.2840     3.6150     1.6730 hc         1 8V2       0.065700
     90 H43         -6.6910     0.7270     1.0620 hn         1 8V2       0.310500
     91 C32         -6.0390     2.4210     0.1850 c          1 8V2       0.616100
@<TRIPOS>BOND
     1     1     8 1   
     2     1    37 1   
     3     2    35 2   
     4     2    36 1   
     5     2    49 1   
     6     3    29 2   
     7     4    13 ar  
     8     4    15 ar  
     9     4    50 1   
    10     5    14 ar  
    11     5    16 ar  
    12     5    51 1   
    13     6    91 2   
    14     7    20 1   
    15     7    40 1   
    16     7    52 1   
    17     7    53 1   
    18     8    17 1   
    19     8    44 2   
    20     9    18 1   
    21     9    38 1   
    22     9    41 1   
    23     9    54 1   
    24    10    11 1   
    25    10    43 1   
    26    10    45 2   
    27    11    12 1   
    28    11    42 1   
    29    11    55 1   
    30    12    13 1   
    31    12    56 1   
    32    12    57 1   
    33    13    14 ar  
    34    14    48 1   
    35    15    16 ar  
    36    15    58 1   
    37    16    59 1   
    38    17    27 1   
    39    17    39 1   
    40    17    60 1   
    41    18    40 1   
    42    18    46 2   
    43    19    22 1   
    44    19    36 1   
    45    19    40 1   
    46    19    61 1   
    47    20    36 1   
    48    20    62 1   
    49    20    63 1   
    50    21    24 1   
    51    21    38 1   
    52    21    64 1   
    53    21    65 1   
    54    22    39 1   
    55    22    47 2   
    56    23    25 2   
    57    23    32 1   
    58    23    66 1   
    59    24    25 1   
    60    24    41 1   
    61    24    67 1   
    62    25    68 1   
    63    26    28 1   
    64    26    31 1   
    65    26    69 1   
    66    26    70 1   
    67    27    33 1   
    68    27    71 1   
    69    27    72 1   
    70    28    43 1   
    71    28    73 1   
    72    28    74 1   
    73    29    32 1   
    74    29    41 1   
    75    30    75 1   
    76    30    76 1   
    77    30    77 1   
    78    30    91 1   
    79    31    32 1   
    80    31    78 1   
    81    31    79 1   
    82    32    43 1   
    83    33    34 1   
    84    33    80 1   
    85    33    81 1   
    86    34    35 1   
    87    34    39 1   
    88    34    82 1   
    89    35    83 1   
    90    36    84 1   
    91    37    85 1   
    92    37    86 1   
    93    37    87 1   
    94    38    88 1   
    95    38    89 1   
    96    42    90 1   
    97    42    91 1   
@<TRIPOS>SUBSTRUCTURE
     1 8V2         1 TEMP              0 ****  ****    0 ROOT
