@<TRIPOS>MOLECULE
8V2
   91    97     1     0     0
SMALL
No Charge or Current Charge


@<TRIPOS>ATOM
      1 O2           7.3950    -2.6820     1.8220 os         1 8V2      -0.437100
      2 C7           6.2220     1.8630    -2.8720 c2         1 8V2      -0.188200
      3 O3          -0.8070     0.7760    -0.0880 o          1 8V2      -0.565000
      4 C16         -6.4630    -0.0290    -3.1180 ca         1 8V2      -0.093000
      5 C19         -7.8860    -2.3640    -2.4900 ca         1 8V2      -0.108000
      6 O5          -5.3870     2.7000    -1.4160 o          1 8V2      -0.590100
      7 C22          3.2470     3.1900    -0.9620 c5         1 8V2       0.110000
      8 C1           6.4810    -2.4690     0.8180 c          1 8V2       0.592100
      9 C10          1.4790     2.0610     1.1020 c5         1 8V2       0.035700
     10 C11         -3.9940     0.7520     1.0130 c          1 8V2       0.590100
     11 C12         -5.2410     0.2390     0.2100 c3         1 8V2       0.058700
     12 C13         -4.8540    -0.3580    -1.1780 c3         1 8V2      -0.038100
     13 C14         -6.0600    -0.8070    -2.0110 ca         1 8V2      -0.063300
     14 C15         -6.7810    -1.9870    -1.7080 ca         1 8V2       0.119000
     15 C17         -7.5700    -0.4100    -3.8960 ca         1 8V2      -0.110000
     16 C18         -8.2840    -1.5760    -3.5820 ca         1 8V2      -0.105000
     17 C2           7.1340    -1.6350    -0.3290 c5         1 8V2       0.055700
     18 C20          2.3430     1.1000     0.2090 c          1 8V2       0.613100
     19 C21          4.4600     1.0510    -1.1850 c5         1 8V2       0.038700
     20 C23          4.2340     3.2180    -2.1580 c5         1 8V2      -0.090400
     21 C24          1.2910     2.8260     3.3980 c5         1 8V2      -0.089400
     22 C25          5.3730     0.1970    -0.2570 c          1 8V2       0.580000
     23 C26         -2.0090     1.1030     3.3430 c2         1 8V2      -0.182200
     24 C27          0.4350     1.5420     3.2820 c5         1 8V2       0.148900
     25 C28         -0.9590     1.7660     3.8610 c2         1 8V2      -0.224200
     26 C29         -1.9550    -2.2250     1.7970 c5         1 8V2      -0.093400
     27 C3           7.4480    -2.6030    -1.5050 c5         1 8V2      -0.086400
     28 C30         -3.3810    -1.6360     1.7130 c5         1 8V2       0.106000
     29 C31         -0.7250     0.7840     1.1370 c          1 8V2       0.582000
     30 C33         -7.5680     3.2450    -0.5600 c3         1 8V2      -0.182100
     31 C34         -1.2480    -1.1930     2.7070 c5         1 8V2      -0.076400
     32 C35         -1.7680     0.1770     2.1480 c5         1 8V2       0.078600
     33 C4           7.5430    -1.6280    -2.6950 c5         1 8V2      -0.091400
     34 C5           6.3100    -0.7020    -2.4770 c5         1 8V2       0.158900
     35 C6           6.6480     0.6200    -3.1900 c2         1 8V2      -0.236200
     36 C8           5.3270     2.2260    -1.6920 c5         1 8V2      -0.048500
     37 C87          6.9730    -3.4340     2.9750 c3         1 8V2       0.153900
     38 C9           2.3510     2.5780     2.2930 c5         1 8V2      -0.086400
     39 N1           6.2770    -0.6030    -0.9940 n          1 8V2      -0.407800
     40 N2           3.3580     1.7840    -0.5020 n          1 8V2      -0.404800
     41 N3           0.3480     1.4070     1.8150 n          1 8V2      -0.384800
     42 N4          -6.3120     1.2700     0.1230 ns         1 8V2      -0.499900
     43 N5          -3.0750    -0.2010     1.5270 n          1 8V2      -0.400800
     44 O1           5.3320    -2.8970     0.8420 o          1 8V2      -0.464000
     45 O4          -3.7820     1.9510     1.1620 o          1 8V2      -0.572100
     46 O6           2.2500    -0.1230     0.1720 o          1 8V2      -0.576100
     47 O7           5.3670     0.2180     0.9690 o          1 8V2      -0.552000
     48 Cl          -6.3220    -3.0320    -0.3630 cl         1 8V2      -0.226000
     49 H7           6.5630     2.6820    -3.5090 ha         1 8V2       0.180000
     50 H16         -5.9200     0.8760    -3.3790 ha         1 8V2       0.139000
     51 H19         -8.4340    -3.2720    -2.2490 ha         1 8V2       0.126000
     52 H93          3.5620     3.8840    -0.1720 h1         1 8V2       0.054200
     53 H22          2.2300     3.4550    -1.2810 h1         1 8V2       0.054200
     54 H10          1.0930     2.8880     0.4930 h1         1 8V2       0.079700
     55 H12         -5.6660    -0.5720     0.8100 h1         1 8V2       0.059700
     56 H13         -4.2710     0.3870    -1.7320 hc         1 8V2       0.084200
     57 H36         -4.1630    -1.1970    -1.0510 hc         1 8V2       0.084200
     58 H17         -7.8730     0.2010    -4.7450 ha         1 8V2       0.118000
     59 H18         -9.1400    -1.8710    -4.1850 ha         1 8V2       0.116000
     60 H25          8.0500    -1.1690     0.0570 h1         1 8V2       0.083700
     61 H21          4.0540     0.4360    -1.9970 h1         1 8V2       0.084700
     62 H94          3.7440     2.8700    -3.0750 hc         1 8V2       0.059700
     63 H23          4.6220     4.2240    -2.3540 hc         1 8V2       0.059700
     64 H4B          0.7020     3.7270     3.1850 hc         1 8V2       0.059200
     65 H24          1.7330     2.9470     4.3940 hc         1 8V2       0.059200
     66 H26         -3.0090     1.2390     3.7590 ha         1 8V2       0.189000
     67 H27          0.9390     0.6740     3.7300 h1         1 8V2       0.068700
     68 H28         -1.1030     2.4380     4.7090 ha         1 8V2       0.189000
     69 H38         -1.9440    -3.2380     2.2150 hc         1 8V2       0.065200
     70 H29         -1.4860    -2.2710     0.8070 hc         1 8V2       0.065200
     71 H31          8.3710    -3.1720    -1.3450 hc         1 8V2       0.065200
     72 H32          6.6390    -3.3270    -1.6630 hc         1 8V2       0.065200
     73 H30         -3.9450    -2.0840     0.8900 h1         1 8V2       0.047200
     74 H37         -3.9420    -1.7940     2.6440 h1         1 8V2       0.047200
     75 H35         -8.4400     2.6190    -0.7790 hc         1 8V2       0.057367
     76 H33         -7.7280     3.5090     0.4920 hc         1 8V2       0.057367
     77 H34         -7.5380     4.1340    -1.2010 hc         1 8V2       0.057367
     78 H4A         -1.5480    -1.3420     3.7520 hc         1 8V2       0.065700
     79 H39         -0.1570    -1.2890     2.6750 hc         1 8V2       0.065700
     80 H41          8.4850    -1.0680    -2.6510 hc         1 8V2       0.057700
     81 H42          7.5140    -2.1390    -3.6640 hc         1 8V2       0.057700
     82 H5           5.3910    -1.1670    -2.8640 h1         1 8V2       0.072700
     83 H6           7.2850     0.5460    -4.0740 ha         1 8V2       0.178000
     84 H8           5.9210     2.6690    -0.8810 hc         1 8V2       0.077700
     85 H87          7.7970    -3.5250     3.6930 h1         1 8V2       0.047700
     86 H95          6.1340    -2.9380     3.4800 h1         1 8V2       0.047700
     87 H96          6.6580    -4.4460     2.6880 h1         1 8V2       0.047700
     88 H92          3.0760     1.8220     2.6170 hc         1 8V2       0.065700
     89 H91          2.9170     3.4830     2.0450 hc         1 8V2       0.065700
     90 H43         -7.1380     1.1400     0.6960 hn         1 8V2       0.310500
     91 C32         -6.3090     2.3970    -0.6740 c          1 8V2       0.616100
@<TRIPOS>BOND
     1     1     8 1   
     2     1    37 1   
     3     2    35 2   
     4     2    36 1   
     5     2    49 1   
     6     3    29 2   
     7     4    13 ar  
     8     4    15 ar  
     9     4    50 1   
    10     5    14 ar  
    11     5    16 ar  
    12     5    51 1   
    13     6    91 2   
    14     7    20 1   
    15     7    40 1   
    16     7    52 1   
    17     7    53 1   
    18     8    17 1   
    19     8    44 2   
    20     9    18 1   
    21     9    38 1   
    22     9    41 1   
    23     9    54 1   
    24    10    11 1   
    25    10    43 1   
    26    10    45 2   
    27    11    12 1   
    28    11    42 1   
    29    11    55 1   
    30    12    13 1   
    31    12    56 1   
    32    12    57 1   
    33    13    14 ar  
    34    14    48 1   
    35    15    16 ar  
    36    15    58 1   
    37    16    59 1   
    38    17    27 1   
    39    17    39 1   
    40    17    60 1   
    41    18    40 1   
    42    18    46 2   
    43    19    22 1   
    44    19    36 1   
    45    19    40 1   
    46    19    61 1   
    47    20    36 1   
    48    20    62 1   
    49    20    63 1   
    50    21    24 1   
    51    21    38 1   
    52    21    64 1   
    53    21    65 1   
    54    22    39 1   
    55    22    47 2   
    56    23    25 2   
    57    23    32 1   
    58    23    66 1   
    59    24    25 1   
    60    24    41 1   
    61    24    67 1   
    62    25    68 1   
    63    26    28 1   
    64    26    31 1   
    65    26    69 1   
    66    26    70 1   
    67    27    33 1   
    68    27    71 1   
    69    27    72 1   
    70    28    43 1   
    71    28    73 1   
    72    28    74 1   
    73    29    32 1   
    74    29    41 1   
    75    30    75 1   
    76    30    76 1   
    77    30    77 1   
    78    30    91 1   
    79    31    32 1   
    80    31    78 1   
    81    31    79 1   
    82    32    43 1   
    83    33    34 1   
    84    33    80 1   
    85    33    81 1   
    86    34    35 1   
    87    34    39 1   
    88    34    82 1   
    89    35    83 1   
    90    36    84 1   
    91    37    85 1   
    92    37    86 1   
    93    37    87 1   
    94    38    88 1   
    95    38    89 1   
    96    42    90 1   
    97    42    91 1   
@<TRIPOS>SUBSTRUCTURE
     1 8V2         1 TEMP              0 ****  ****    0 ROOT
