@<TRIPOS>MOLECULE
8V3
   32    32     1     0     0
SMALL
abcg2


@<TRIPOS>ATOM
      1 C11        -41.7590    45.5400    -3.9920 c3         1 8V3      -0.008100
      2 C12        -40.7950    46.1470    -4.9470 cc         1 8V3      -0.136300
      3 C13        -39.8720    45.5680    -5.7800 cd         1 8V3       0.223900
      4 C15        -39.6900    47.6790    -6.0910 cc         1 8V3       0.368400
      5 C02        -43.5570    45.0050    -5.7230 c          1 8V3       0.710000
      6 C04        -43.2580    45.6760    -4.3610 c3         1 8V3      -0.033300
      7 C08        -45.2510    44.7740    -1.2390 c3         1 8V3      -0.158400
      8 C09        -44.4700    44.3500     0.0070 c3         1 8V3       0.153800
      9 N05        -44.0700    45.0470    -3.3360 ns         1 8V3      -0.462900
     10 N10        -45.3340    43.5720     0.9040 n8         1 8V3      -1.006200
     11 N14        -39.1860    46.5290    -6.4910 nd         1 8V3      -0.693000
     12 N16        -40.6620    47.5070    -5.1550 na         1 8V3      -0.165500
     13 O03        -43.9040    43.7970    -5.6860 o          1 8V3      -0.717500
     14 O07        -44.0210    46.7490    -1.8430 o          1 8V3      -0.672100
     15 H1         -41.5290    44.4760    -3.9130 hc         1 8V3       0.044200
     16 H2         -41.6290    45.9710    -2.9960 hc         1 8V3       0.044200
     17 H3         -39.6720    44.5140    -5.9010 h4         1 8V3       0.031100
     18 H4         -39.3920    48.6600    -6.4270 h5         1 8V3       0.033100
     19 H5         -43.5280    46.7280    -4.4190 h1         1 8V3       0.055700
     20 H6         -46.1060    45.3840    -0.9370 hc         1 8V3       0.059200
     21 H7         -45.6310    43.8880    -1.7490 hc         1 8V3       0.059200
     22 H8         -43.6330    43.7150    -0.2910 h1         1 8V3       0.039200
     23 H9         -44.0500    45.2440     0.4820 h1         1 8V3       0.039200
     24 H10        -41.5500    48.3620    -3.4640 h1         1 8V3       0.050033
     25 H11        -40.8880    49.5070    -4.6450 h1         1 8V3       0.050033
     26 H12        -42.4120    48.6630    -4.9870 h1         1 8V3       0.050033
     27 H13        -44.3980    44.1200    -3.5700 hn         1 8V3       0.342500
     28 H14        -44.7950    43.2550     1.7030 hn         1 8V3       0.385000
     29 H15        -46.0620    44.1730     1.2780 hn         1 8V3       0.385000
     30 C06        -44.3960    45.6150    -2.1660 c          1 8V3       0.582100
     31 C17        -41.4280    48.5700    -4.5260 c3         1 8V3       0.063900
     32 O01        -43.4010    45.7150    -6.7420 o          1 8V3      -0.717500
@<TRIPOS>BOND
     1     1     2 1   
     2     1     6 1   
     3     1    15 1   
     4     1    16 1   
     5     2     3 2   
     6     2    12 1   
     7     3    11 1   
     8     3    17 1   
     9     4    11 2   
    10     4    12 1   
    11     4    18 1   
    12     5     6 1   
    13     5    13 1   
    14     5    32 1   
    15     6     9 1   
    16     6    19 1   
    17     7     8 1   
    18     7    20 1   
    19     7    21 1   
    20     7    30 1   
    21     8    10 1   
    22     8    22 1   
    23     8    23 1   
    24     9    27 1   
    25     9    30 1   
    26    10    28 1   
    27    10    29 1   
    28    12    31 1   
    29    14    30 2   
    30    24    31 1   
    31    25    31 1   
    32    26    31 1   
@<TRIPOS>SUBSTRUCTURE
     1 8V3         1 TEMP              0 ****  ****    0 ROOT
