@<TRIPOS>MOLECULE
8V3
   32    32     1     0     0
SMALL
No Charge or Current Charge


@<TRIPOS>ATOM
      1 C11        -41.7120    45.5310    -3.9790 c3         1 8V3      -0.008100
      2 C12        -40.7970    46.1890    -4.9810 cc         1 8V3      -0.136300
      3 C13        -39.9530    45.6040    -5.8930 cd         1 8V3       0.223900
      4 C15        -39.7110    47.7270    -6.1630 cc         1 8V3       0.368400
      5 C02        -43.4580    44.8590    -5.7450 c          1 8V3       0.710000
      6 C04        -43.2050    45.5800    -4.3860 c3         1 8V3      -0.033300
      7 C08        -45.3260    44.8300    -1.2250 c3         1 8V3      -0.158400
      8 C09        -44.5290    44.3540    -0.0000 c3         1 8V3       0.153800
      9 N05        -44.0770    45.0100    -3.3300 ns         1 8V3      -0.462900
     10 N10        -45.3760    43.5420     0.8950 n8         1 8V3      -1.006200
     11 N14        -39.2800    46.5620    -6.6250 nd         1 8V3      -0.693000
     12 N16        -40.6350    47.5500    -5.1540 na         1 8V3      -0.165500
     13 O03        -43.4040    43.6360    -5.7700 o          1 8V3      -0.717500
     14 O07        -44.0800    46.7880    -1.9020 o          1 8V3      -0.672100
     15 H1         -41.4120    44.4840    -3.8430 hc         1 8V3       0.044200
     16 H2         -41.5840    46.0110    -3.0010 hc         1 8V3       0.044200
     17 H3         -39.7930    44.5460    -6.0620 h4         1 8V3       0.031100
     18 H4         -39.4010    48.7090    -6.5020 h5         1 8V3       0.033100
     19 H5         -43.4910    46.6300    -4.5230 h1         1 8V3       0.055700
     20 H6         -46.1490    45.4680    -0.8830 hc         1 8V3       0.059200
     21 H7         -45.7220    43.9530    -1.7500 hc         1 8V3       0.059200
     22 H8         -43.6740    43.7450    -0.3290 h1         1 8V3       0.039200
     23 H9         -44.1450    45.2200     0.5570 h1         1 8V3       0.039200
     24 H10        -41.2870    48.4090    -3.3370 h1         1 8V3       0.050033
     25 H11        -40.8120    49.5810    -4.5980 h1         1 8V3       0.050033
     26 H12        -42.3580    48.6950    -4.7420 h1         1 8V3       0.050033
     27 H13        -44.4290    44.0670    -3.4630 hn         1 8V3       0.342500
     28 H14        -44.8320    43.2860     1.7280 hn         1 8V3       0.385000
     29 H15        -46.1280    44.1330     1.2700 hn         1 8V3       0.385000
     30 C06        -44.4290    45.6430    -2.1590 c          1 8V3       0.582100
     31 C17        -41.3150    48.6240    -4.4120 c3         1 8V3       0.063900
     32 O01        -43.8260    45.5330    -6.6970 o          1 8V3      -0.717500
@<TRIPOS>BOND
     1     1     2 1   
     2     1     6 1   
     3     1    15 1   
     4     1    16 1   
     5     2     3 2   
     6     2    12 1   
     7     3    11 1   
     8     3    17 1   
     9     4    11 2   
    10     4    12 1   
    11     4    18 1   
    12     5     6 1   
    13     5    13 1   
    14     5    32 1   
    15     6     9 1   
    16     6    19 1   
    17     7     8 1   
    18     7    20 1   
    19     7    21 1   
    20     7    30 1   
    21     8    10 1   
    22     8    22 1   
    23     8    23 1   
    24     9    27 1   
    25     9    30 1   
    26    10    28 1   
    27    10    29 1   
    28    12    31 1   
    29    14    30 2   
    30    24    31 1   
    31    25    31 1   
    32    26    31 1   
@<TRIPOS>SUBSTRUCTURE
     1 8V3         1 TEMP              0 ****  ****    0 ROOT
