@<TRIPOS>MOLECULE
8V4
   26    27     1     0     0
SMALL
abcg2


@<TRIPOS>ATOM
      1 N3          25.8010     7.8160   430.7200 na         1 8V4       0.124800
      2 C4          26.2400     8.8340   429.9460 cc         1 8V4      -0.225000
      3 C5          27.4730     8.4450   429.4440 cd         1 8V4      -0.056400
      4 C7          29.4930     8.8790   428.1220 c          1 8V4       0.644700
      5 C10         31.4560     9.6700   426.6590 cc         1 8V4      -0.130000
      6 C13         29.7390    11.0950   426.8270 cd         1 8V4       0.161900
      7 C1          23.4780     6.9710   430.5550 c3         1 8V4      -0.113100
      8 C2          24.5100     7.7180   431.3900 c3         1 8V4       0.092600
      9 N6          28.2730     9.2260   428.6060 ns         1 8V4      -0.374100
     10 O8          30.0290     7.8020   428.3860 o          1 8V4      -0.588100
     11 C9          30.1600     9.8680   427.2500 cc         1 8V4      -0.221600
     12 C11         31.7200    10.7800   425.9340 cd         1 8V4       0.114900
     13 O12         30.6750    11.6620   426.0290 os         1 8V4      -0.244000
     14 C14         27.6910     7.1570   429.9770 cd         1 8V4       0.252900
     15 N15         26.6640     6.7890   430.7470 nc         1 8V4      -0.515800
     16 H1          25.6710     9.7380   429.8090 h4         1 8V4       0.151000
     17 H3          28.8490    11.6790   426.9930 h4         1 8V4       0.050100
     18 H4          22.5330     6.9200   431.0990 hc         1 8V4       0.049700
     19 H5          23.3030     7.4820   429.6060 hc         1 8V4       0.049700
     20 H6          23.8110     5.9530   430.3480 hc         1 8V4       0.049700
     21 H7          24.1800     8.7350   431.5980 h1         1 8V4       0.062700
     22 H8          24.6800     7.2140   432.3410 h1         1 8V4       0.062700
     23 H9          27.8970    10.1280   428.3570 hn         1 8V4       0.314500
     24 H10         32.5490    11.0960   425.3260 h4         1 8V4       0.058100
     25 H11         28.5370     6.5090   429.8380 h4         1 8V4       0.065100
     26 H2          32.0870     8.8060   426.7790 ha         1 8V4       0.163000
@<TRIPOS>BOND
     1     1     2 1   
     2     1     8 1   
     3     1    15 1   
     4     2     3 2   
     5     2    16 1   
     6     3     9 1   
     7     3    14 1   
     8     4     9 1   
     9     4    10 2   
    10     4    11 1   
    11     5    11 1   
    12     5    12 2   
    13     5    26 1   
    14     6    11 2   
    15     6    13 1   
    16     6    17 1   
    17     7     8 1   
    18     7    18 1   
    19     7    19 1   
    20     7    20 1   
    21     8    21 1   
    22     8    22 1   
    23     9    23 1   
    24    12    13 1   
    25    12    24 1   
    26    14    15 2   
    27    14    25 1   
@<TRIPOS>SUBSTRUCTURE
     1 8V4         1 TEMP              0 ****  ****    0 ROOT
