@<TRIPOS>MOLECULE
8V4
   26    27     1     0     0
SMALL
No Charge or Current Charge


@<TRIPOS>ATOM
      1 N3          25.8420     7.7600   430.6950 na         1 8V4       0.124800
      2 C4          26.2730     8.7900   429.8620 cc         1 8V4      -0.225000
      3 C5          27.5120     8.3840   429.4760 cd         1 8V4      -0.056400
      4 C7          29.6050     8.7910   428.1700 c          1 8V4       0.644700
      5 C10         31.4640     9.7460   426.6560 cc         1 8V4      -0.130000
      6 C13         29.6280    10.9830   426.8510 cd         1 8V4       0.161900
      7 C1          23.4110     7.1460   430.4940 c3         1 8V4      -0.113100
      8 C2          24.5430     7.6920   431.3870 c3         1 8V4       0.092600
      9 N6          28.3370     9.1090   428.6250 ns         1 8V4      -0.374100
     10 O8          30.1920     7.7650   428.4850 o          1 8V4      -0.588100
     11 C9          30.1920     9.8050   427.2670 cc         1 8V4      -0.221600
     12 C11         31.5920    10.8840   425.9120 cd         1 8V4       0.114900
     13 O12         30.4700    11.6760   426.0090 os         1 8V4      -0.244000
     14 C14         27.7730     7.1330   430.0890 cd         1 8V4       0.252900
     15 N15         26.7610     6.7340   430.8400 nc         1 8V4      -0.515800
     16 H1          25.6840     9.6700   429.6350 h4         1 8V4       0.151000
     17 H3          28.6680    11.4330   427.0700 h4         1 8V4       0.050100
     18 H4          22.4670     7.1170   431.0510 hc         1 8V4       0.049700
     19 H5          23.2730     7.7840   429.6120 hc         1 8V4       0.049700
     20 H6          23.6440     6.1300   430.1550 hc         1 8V4       0.049700
     21 H7          24.2810     8.7010   431.7290 h1         1 8V4       0.062700
     22 H8          24.6460     7.0550   432.2740 h1         1 8V4       0.062700
     23 H9          27.9920     9.9920   428.2730 hn         1 8V4       0.314500
     24 H10         32.4050    11.2370   425.2890 h4         1 8V4       0.058100
     25 H11         28.6530     6.5070   430.0160 h4         1 8V4       0.065100
     26 H2          32.1930     8.9470   426.7630 ha         1 8V4       0.163000
@<TRIPOS>BOND
     1     1     2 1   
     2     1     8 1   
     3     1    15 1   
     4     2     3 2   
     5     2    16 1   
     6     3     9 1   
     7     3    14 1   
     8     4     9 1   
     9     4    10 2   
    10     4    11 1   
    11     5    11 1   
    12     5    12 2   
    13     5    26 1   
    14     6    11 2   
    15     6    13 1   
    16     6    17 1   
    17     7     8 1   
    18     7    18 1   
    19     7    19 1   
    20     7    20 1   
    21     8    21 1   
    22     8    22 1   
    23     9    23 1   
    24    12    13 1   
    25    12    24 1   
    26    14    15 2   
    27    14    25 1   
@<TRIPOS>SUBSTRUCTURE
     1 8V4         1 TEMP              0 ****  ****    0 ROOT
