@<TRIPOS>MOLECULE
8V5
   35    37     1     0     0
SMALL
No Charge or Current Charge


@<TRIPOS>ATOM
      1 S1          -5.7170     0.0490    -0.1980 sy         1 8V5       1.175600
      2 C1          -3.9990    -0.3050    -0.0940 cc         1 8V5      -0.450500
      3 S2          -2.8040     0.9780    -0.1630 ss         1 8V5       0.378000
      4 C3          -1.5130    -0.2140    -0.0340 cc         1 8V5      -0.238500
      5 C4          -2.0000    -1.4970     0.0330 cd         1 8V5      -0.125000
      6 C5          -3.4190    -1.5490    -0.0080 cd         1 8V5       0.021000
      7 C11         -0.1130     0.1010    -0.0090 cc         1 8V5       0.183500
      8 C12          0.4520     1.3440    -0.0750 cd         1 8V5       0.238900
      9 N13          1.8240     1.1920    -0.0200 nd         1 8V5      -0.653000
     10 C14          2.0250    -0.1330     0.0800 cc         1 8V5       0.391500
     11 O15          0.8500    -0.8450     0.0870 os         1 8V5      -0.206000
     12 C16          3.3270    -0.9240     0.1660 c          1 8V5       0.550600
     13 O22         -5.9080     1.4700    -0.4710 o          1 8V5      -0.541500
     14 O23         -6.4070    -1.0180    -0.9210 o          1 8V5      -0.541500
     15 N24         -6.1360    -0.1370     1.3650 n8         1 8V5      -1.008100
     16 O25          3.3210    -2.1540     0.2190 o          1 8V5      -0.569100
     17 N2           4.5920    -0.2460     0.1810 n          1 8V5      -0.390800
     18 C6           4.7400     1.2460     0.0450 c6         1 8V5       0.061000
     19 C7           6.1660     1.8230     0.2360 c6         1 8V5       0.130100
     20 O8           7.1540     0.9730    -0.3670 os         1 8V5      -0.441000
     21 C9           7.1870    -0.3220     0.2520 c6         1 8V5       0.130100
     22 C10          5.8460    -1.0640     0.0290 c6         1 8V5       0.061000
     23 H1          -1.3750    -2.3830     0.1080 ha         1 8V5       0.155000
     24 H2          -3.9840    -2.4780     0.0280 ha         1 8V5       0.154000
     25 H3          -0.0280     2.3100    -0.1580 h4         1 8V5       0.058100
     26 H4          -5.2260    -0.1220     1.8170 hn         1 8V5       0.476500
     27 H5          -6.5270     0.7810     1.5640 hn         1 8V5       0.476500
     28 H6           4.3780     1.5450    -0.9490 h1         1 8V5       0.073950
     29 H7           4.1060     1.7430     0.7910 h1         1 8V5       0.073950
     30 H8           6.2270     2.8250    -0.2120 h1         1 8V5       0.056450
     31 H9           6.3860     1.9220     1.3090 h1         1 8V5       0.056450
     32 H10          8.0140    -0.9080    -0.1730 h1         1 8V5       0.056450
     33 H11          7.3750    -0.2030     1.3290 h1         1 8V5       0.056450
     34 H12          5.8130    -1.9160     0.7230 h1         1 8V5       0.073950
     35 H13          5.8560    -1.4860    -0.9860 h1         1 8V5       0.073950
@<TRIPOS>BOND
     1     1     2 1   
     2     1    13 2   
     3     1    14 2   
     4     1    15 1   
     5     2     3 1   
     6     2     6 2   
     7     3     4 1   
     8     4     5 2   
     9     4     7 1   
    10     5     6 1   
    11     5    23 1   
    12     6    24 1   
    13     7     8 2   
    14     7    11 1   
    15     8     9 1   
    16     8    25 1   
    17     9    10 2   
    18    10    11 1   
    19    10    12 1   
    20    12    16 2   
    21    12    17 1   
    22    15    26 1   
    23    15    27 1   
    24    17    18 1   
    25    17    22 1   
    26    18    19 1   
    27    18    28 1   
    28    18    29 1   
    29    19    20 1   
    30    19    30 1   
    31    19    31 1   
    32    20    21 1   
    33    21    22 1   
    34    21    32 1   
    35    21    33 1   
    36    22    34 1   
    37    22    35 1   
@<TRIPOS>SUBSTRUCTURE
     1 8V5         1 TEMP              0 ****  ****    0 ROOT
