@<TRIPOS>MOLECULE
8V5
   35    37     1     0     0
SMALL
abcg2


@<TRIPOS>ATOM
      1 S1          -5.4060    -0.0230     0.1890 sy         1 8V5       1.175600
      2 C1          -3.6890    -0.3490     0.2010 cc         1 8V5      -0.450500
      3 S2          -2.6310     0.7260    -0.6110 ss         1 8V5       0.378000
      4 C3          -1.2810    -0.2490    -0.1870 cc         1 8V5      -0.238500
      5 C4          -1.6520    -1.3530     0.5410 cd         1 8V5      -0.125000
      6 C5          -3.0430    -1.4090     0.7630 cd         1 8V5       0.021000
      7 C11          0.0430     0.1330    -0.5930 cc         1 8V5       0.183500
      8 C12          0.5630     1.1830    -1.2830 cd         1 8V5       0.238900
      9 N13          1.9210     1.0330    -1.3490 nd         1 8V5      -0.653000
     10 C14          2.1700    -0.0640    -0.7190 cc         1 8V5       0.391500
     11 O15          1.0740    -0.6640    -0.2410 os         1 8V5      -0.206000
     12 C16          3.4430    -0.8260    -0.5690 c          1 8V5       0.550600
     13 O22         -5.5720     1.1040    -0.7180 o          1 8V5      -0.541500
     14 O23         -6.1410    -1.2500    -0.0610 o          1 8V5      -0.541500
     15 N24         -5.6840     0.3590     1.7650 n8         1 8V5      -1.008100
     16 O25          3.3730    -2.0450    -0.5870 o          1 8V5      -0.569100
     17 N2           4.5830    -0.1270    -0.4770 n          1 8V5      -0.390800
     18 C6           4.7160     1.2910    -0.1710 c6         1 8V5       0.061000
     19 C7           5.5030     1.4560     1.1200 c6         1 8V5       0.130100
     20 O8           6.7530     0.8080     1.0650 os         1 8V5      -0.441000
     21 C9           6.6030    -0.5710     0.8130 c6         1 8V5       0.130100
     22 C10          5.8670    -0.8160    -0.4920 c6         1 8V5       0.061000
     23 H1          -0.9570    -2.0960     0.9030 ha         1 8V5       0.155000
     24 H2          -3.5370    -2.1960     1.3140 ha         1 8V5       0.154000
     25 H3           0.0530     2.0220    -1.7280 h4         1 8V5       0.058100
     26 H4          -5.3250     1.2740     2.0200 hn         1 8V5       0.476500
     27 H5          -6.6690     0.2840     2.0000 hn         1 8V5       0.476500
     28 H6           5.2320     1.7860    -0.9980 h1         1 8V5       0.073950
     29 H7           3.7470     1.7650    -0.0550 h1         1 8V5       0.073950
     30 H8           5.6890     2.5160     1.2980 h1         1 8V5       0.056450
     31 H9           4.9040     1.0720     1.9580 h1         1 8V5       0.056450
     32 H10          7.6010    -1.0070     0.7600 h1         1 8V5       0.056450
     33 H11          6.0610    -1.0600     1.6350 h1         1 8V5       0.056450
     34 H12          5.7200    -1.8810    -0.6480 h1         1 8V5       0.073950
     35 H13          6.4520    -0.4270    -1.3310 h1         1 8V5       0.073950
@<TRIPOS>BOND
     1     1     2 1   
     2     1    13 2   
     3     1    14 2   
     4     1    15 1   
     5     2     3 1   
     6     2     6 2   
     7     3     4 1   
     8     4     5 2   
     9     4     7 1   
    10     5     6 1   
    11     5    23 1   
    12     6    24 1   
    13     7     8 2   
    14     7    11 1   
    15     8     9 1   
    16     8    25 1   
    17     9    10 2   
    18    10    11 1   
    19    10    12 1   
    20    12    16 2   
    21    12    17 1   
    22    15    26 1   
    23    15    27 1   
    24    17    18 1   
    25    17    22 1   
    26    18    19 1   
    27    18    28 1   
    28    18    29 1   
    29    19    20 1   
    30    19    30 1   
    31    19    31 1   
    32    20    21 1   
    33    21    22 1   
    34    21    32 1   
    35    21    33 1   
    36    22    34 1   
    37    22    35 1   
@<TRIPOS>SUBSTRUCTURE
     1 8V5         1 TEMP              0 ****  ****    0 ROOT
