@<TRIPOS>MOLECULE
8V6
   58    59     1     0     0
SMALL
No Charge or Current Charge


@<TRIPOS>ATOM
      1 C1          -6.4390     2.7150     0.4990 c          1 8V6       0.696200
      2 C2          -4.9900     3.1180     0.4840 ce         1 8V6      -0.206200
      3 C3          -3.8470     2.3620     0.3610 cf         1 8V6      -0.156200
      4 C4          -3.8140     0.8940     0.2780 cf         1 8V6      -0.092000
      5 C5          -2.7640     0.1530    -0.1720 c2         1 8V6      -0.347200
      6 C6          -2.4960     3.0690     0.3820 c3         1 8V6      -0.045900
      7 O11         -6.7620     1.5480     0.3530 o          1 8V6      -0.723500
      8 O12         -7.2560     3.6110     0.6430 o          1 8V6      -0.723500
      9 C10         -2.7430    -1.3970    -0.2320 c6         1 8V6       0.280400
     10 C15         -2.2690    -2.0410     1.1360 c6         1 8V6      -0.017000
     11 C9          -3.0410    -1.4790     2.3750 c3         1 8V6      -0.076100
     12 C14         -0.7290    -1.7340     1.2980 c6         1 8V6      -0.071400
     13 C8          -2.4900    -3.5930     1.1500 c3         1 8V6      -0.076100
     14 O1          -4.0730    -1.8200    -0.5330 oh         1 8V6      -0.661000
     15 C11         -1.8000    -1.7920    -1.3970 c2         1 8V6      -0.087400
     16 C7          -2.3830    -1.6820    -2.8020 c3         1 8V6      -0.063900
     17 C12         -0.5130    -2.1560    -1.2090 c2         1 8V6      -0.278200
     18 C13          0.1880    -2.2670     0.1410 c6         1 8V6       0.218500
     19 O4           1.4270    -1.5350     0.1380 os         1 8V6      -0.451000
     20 CA1          2.5130    -2.0810    -0.6320 c3         1 8V6       0.251700
     21 CA2          3.7010    -1.2460    -0.4210 c1         1 8V6      -0.102100
     22 CA3          4.6820    -0.5420    -0.2820 cg         1 8V6      -0.123000
     23 CA4          5.8330     0.2970    -0.1150 ca         1 8V6       0.037000
     24 CA5          5.7220     1.5180     0.5760 ca         1 8V6      -0.088000
     25 CA6          6.8500     2.3410     0.7410 ca         1 8V6      -0.115000
     26 CA7          8.0970     1.9510     0.2150 ca         1 8V6      -0.076300
     27 CA0          9.3170     2.8410     0.3970 c3         1 8V6      -0.044800
     28 CA8          8.2050     0.7280    -0.4740 ca         1 8V6      -0.115000
     29 CA9          7.0780    -0.0960    -0.6390 ca         1 8V6      -0.088000
     30 H1          -4.8630     4.1940     0.5730 ha         1 8V6       0.147000
     31 H2          -4.7020     0.3660     0.6270 ha         1 8V6       0.225000
     32 H3          -1.8660     0.6900    -0.5230 ha         1 8V6       0.167000
     33 H4          -1.7740     2.5390     1.0150 hc         1 8V6       0.019700
     34 H5          -2.0720     3.1400    -0.6260 hc         1 8V6       0.019700
     35 H6          -2.5700     4.0890     0.7780 hc         1 8V6       0.019700
     36 H8          -4.1240    -1.6140     2.2720 hc         1 8V6       0.034200
     37 H9          -2.7360    -1.9870     3.2980 hc         1 8V6       0.034200
     38 H10         -2.8500    -0.4110     2.5250 hc         1 8V6       0.034200
     39 H11         -0.5930    -0.6470     1.3760 hc         1 8V6       0.054200
     40 H12         -0.3650    -2.1420     2.2500 hc         1 8V6       0.054200
     41 H13         -2.0370    -4.0810     0.2800 hc         1 8V6       0.034200
     42 H14         -2.0510    -4.0510     2.0450 hc         1 8V6       0.034200
     43 H15         -3.5560    -3.8520     1.1470 hc         1 8V6       0.034200
     44 H16         -4.3510    -1.2520    -1.2790 ho         1 8V6       0.459000
     45 H17         -2.7990    -0.6840    -2.9830 hc         1 8V6       0.044367
     46 H18         -1.6220    -1.8590    -3.5710 hc         1 8V6       0.044367
     47 H19         -3.1800    -2.4180    -2.9660 hc         1 8V6       0.044367
     48 H20          0.0970    -2.4120    -2.0720 ha         1 8V6       0.161000
     49 H21          0.4060    -3.3280     0.3370 h1         1 8V6       0.029700
     50 H22          2.7390    -3.1080    -0.3150 h1         1 8V6       0.036200
     51 H23          2.2770    -2.0910    -1.7030 h1         1 8V6       0.036200
     52 H24          4.7630     1.8290     0.9860 ha         1 8V6       0.121000
     53 H25          6.7540     3.2820     1.2780 ha         1 8V6       0.109500
     54 H26          9.8410     2.5990     1.3290 hc         1 8V6       0.039700
     55 H27         10.0280     2.7180    -0.4290 hc         1 8V6       0.039700
     56 H28          9.0370     3.9000     0.4350 hc         1 8V6       0.039700
     57 H29          9.1640     0.4140    -0.8810 ha         1 8V6       0.109500
     58 H30          7.1730    -1.0390    -1.1730 ha         1 8V6       0.121000
@<TRIPOS>BOND
     1     1     2 1   
     2     1     7 1   
     3     1     8 1   
     4     2     3 2   
     5     2    30 1   
     6     3     4 1   
     7     3     6 1   
     8     4     5 2   
     9     4    31 1   
    10     5     9 1   
    11     5    32 1   
    12     6    33 1   
    13     6    34 1   
    14     6    35 1   
    15     9    10 1   
    16     9    14 1   
    17     9    15 1   
    18    10    11 1   
    19    10    12 1   
    20    10    13 1   
    21    11    36 1   
    22    11    37 1   
    23    11    38 1   
    24    12    18 1   
    25    12    39 1   
    26    12    40 1   
    27    13    41 1   
    28    13    42 1   
    29    13    43 1   
    30    14    44 1   
    31    15    16 1   
    32    15    17 2   
    33    16    45 1   
    34    16    46 1   
    35    16    47 1   
    36    17    18 1   
    37    17    48 1   
    38    18    19 1   
    39    18    49 1   
    40    19    20 1   
    41    20    21 1   
    42    20    50 1   
    43    20    51 1   
    44    21    22 3   
    45    22    23 1   
    46    23    24 ar  
    47    23    29 ar  
    48    24    25 ar  
    49    24    52 1   
    50    25    26 ar  
    51    25    53 1   
    52    26    27 1   
    53    26    28 ar  
    54    27    54 1   
    55    27    55 1   
    56    27    56 1   
    57    28    29 ar  
    58    28    57 1   
    59    29    58 1   
@<TRIPOS>SUBSTRUCTURE
     1 8V6         1 TEMP              0 ****  ****    0 ROOT
