@<TRIPOS>MOLECULE
8V6
   58    59     1     0     0
SMALL
bcc


@<TRIPOS>ATOM
      1 C1          -6.7340     2.4330    -0.0360 c          1 8V6       0.906800
      2 C2          -5.3190     2.9420     0.1120 ce         1 8V6      -0.156200
      3 C3          -4.1480     2.2760     0.1510 cf         1 8V6      -0.156200
      4 C4          -4.0420     0.8210     0.0590 cf         1 8V6      -0.042000
      5 C5          -2.8810     0.1580     0.0630 c2         1 8V6      -0.297200
      6 C6          -2.8690     3.0520     0.3120 c3         1 8V6      -0.045900
      7 O11         -6.9470     1.2090    -0.1700 o          1 8V6      -0.828800
      8 O12         -7.6060     3.3270    -0.0110 o          1 8V6      -0.828800
      9 C10         -2.7250    -1.3410    -0.0550 c6         1 8V6       0.257200
     10 C15         -2.0800    -1.9440     1.2270 c6         1 8V6      -0.017000
     11 C9          -2.7890    -1.4400     2.4850 c3         1 8V6      -0.076100
     12 C14         -0.6120    -1.5140     1.2890 c6         1 8V6      -0.071400
     13 C8          -2.1680    -3.4760     1.2060 c3         1 8V6      -0.076100
     14 O1          -3.9680    -1.9850    -0.2120 oh         1 8V6      -0.598800
     15 C11         -1.8420    -1.5760    -1.2820 c2         1 8V6      -0.087400
     16 C7          -2.5100    -1.4420    -2.6180 c3         1 8V6      -0.063900
     17 C12         -0.5400    -1.8390    -1.1830 c2         1 8V6      -0.228200
     18 C13          0.1990    -2.0110     0.1080 c6         1 8V6       0.195300
     19 O4           1.4260    -1.2900     0.1070 os         1 8V6      -0.404600
     20 CA1          2.4710    -1.9380    -0.5750 c3         1 8V6       0.228500
     21 CA2          3.6920    -1.1600    -0.4080 c1         1 8V6      -0.102100
     22 CA3          4.7070    -0.5250    -0.2720 cg         1 8V6      -0.123000
     23 CA4          5.9000     0.2370    -0.1030 ca         1 8V6       0.037000
     24 CA5          6.0300     1.1200     0.9720 ca         1 8V6      -0.106000
     25 CA6          7.1880     1.8630     1.1300 ca         1 8V6      -0.133000
     26 CA7          8.2490     1.7500     0.2330 ca         1 8V6      -0.076300
     27 CA0          9.5130     2.5330     0.4280 c3         1 8V6      -0.044800
     28 CA8          8.1110     0.8660    -0.8370 ca         1 8V6      -0.133000
     29 CA9          6.9570     0.1200    -1.0080 ca         1 8V6      -0.106000
     30 H1          -5.2570     4.0240     0.1980 ha         1 8V6       0.097000
     31 H2          -4.9830     0.2910     0.0010 ha         1 8V6       0.175000
     32 H3          -1.9480     0.7090     0.1170 ha         1 8V6       0.117000
     33 H4          -2.3380     2.7560     1.2190 hc         1 8V6       0.019700
     34 H5          -2.1860     2.8780    -0.5220 hc         1 8V6       0.019700
     35 H6          -3.0580     4.1230     0.3690 hc         1 8V6       0.019700
     36 H8          -3.8600    -1.6390     2.4490 hc         1 8V6       0.034200
     37 H9          -2.3840    -1.9440     3.3640 hc         1 8V6       0.034200
     38 H10         -2.6540    -0.3670     2.6280 hc         1 8V6       0.034200
     39 H11         -0.5420    -0.4220     1.3270 hc         1 8V6       0.054200
     40 H12         -0.1700    -1.8820     2.2200 hc         1 8V6       0.054200
     41 H13         -1.8210    -3.9120     0.2690 hc         1 8V6       0.034200
     42 H14         -1.5530    -3.8860     2.0100 hc         1 8V6       0.034200
     43 H15         -3.1880    -3.8210     1.3700 hc         1 8V6       0.034200
     44 H16         -4.4570    -1.5700    -0.9300 ho         1 8V6       0.420000
     45 H17         -3.0500    -0.4950    -2.7030 hc         1 8V6       0.044367
     46 H18         -1.7820    -1.4810    -3.4260 hc         1 8V6       0.044367
     47 H19         -3.2350    -2.2410    -2.7920 hc         1 8V6       0.044367
     48 H20          0.0310    -1.9780    -2.0980 ha         1 8V6       0.111000
     49 H21          0.4240    -3.0810     0.2420 h1         1 8V6       0.029700
     50 H22          2.6290    -2.9530    -0.1830 h1         1 8V6       0.036200
     51 H23          2.2640    -2.0480    -1.6480 h1         1 8V6       0.036200
     52 H24          5.2200     1.2270     1.6800 ha         1 8V6       0.139000
     53 H25          7.2650     2.5470     1.9670 ha         1 8V6       0.127500
     54 H26         10.2420     1.9580     1.0030 hc         1 8V6       0.039700
     55 H27          9.9800     2.7840    -0.5240 hc         1 8V6       0.039700
     56 H28          9.3310     3.4600     0.9710 hc         1 8V6       0.039700
     57 H29          8.9180     0.7600    -1.5520 ha         1 8V6       0.127500
     58 H30          6.8720    -0.5560    -1.8490 ha         1 8V6       0.139000
@<TRIPOS>BOND
     1     1     2 1   
     2     1     7 1   
     3     1     8 1   
     4     2     3 2   
     5     2    30 1   
     6     3     4 1   
     7     3     6 1   
     8     4     5 2   
     9     4    31 1   
    10     5     9 1   
    11     5    32 1   
    12     6    33 1   
    13     6    34 1   
    14     6    35 1   
    15     9    10 1   
    16     9    14 1   
    17     9    15 1   
    18    10    11 1   
    19    10    12 1   
    20    10    13 1   
    21    11    36 1   
    22    11    37 1   
    23    11    38 1   
    24    12    18 1   
    25    12    39 1   
    26    12    40 1   
    27    13    41 1   
    28    13    42 1   
    29    13    43 1   
    30    14    44 1   
    31    15    16 1   
    32    15    17 2   
    33    16    45 1   
    34    16    46 1   
    35    16    47 1   
    36    17    18 1   
    37    17    48 1   
    38    18    19 1   
    39    18    49 1   
    40    19    20 1   
    41    20    21 1   
    42    20    50 1   
    43    20    51 1   
    44    21    22 3   
    45    22    23 1   
    46    23    24 ar  
    47    23    29 ar  
    48    24    25 ar  
    49    24    52 1   
    50    25    26 ar  
    51    25    53 1   
    52    26    27 1   
    53    26    28 ar  
    54    27    54 1   
    55    27    55 1   
    56    27    56 1   
    57    28    29 ar  
    58    28    57 1   
    59    29    58 1   
@<TRIPOS>SUBSTRUCTURE
     1 8V6         1 TEMP              0 ****  ****    0 ROOT
