@<TRIPOS>MOLECULE
8V7
   36    38     1     0     0
SMALL
No Charge or Current Charge


@<TRIPOS>ATOM
      1 C5           4.5120     1.5720    -0.1370 cc         1 8V7       0.371400
      2 C8           3.1530    -0.1600    -0.0670 cc         1 8V7       0.333500
      3 C17         -3.4520     0.2770    -0.0110 ca         1 8V7       0.490900
      4 C20         -5.9720     1.3430     0.1640 ca         1 8V7      -0.200000
      5 C21         -5.6350     0.1010     0.7280 ca         1 8V7       0.374900
      6 C1           1.5160     2.5500     1.1630 c3         1 8V7      -0.108100
      7 C2           2.0410     2.1870    -0.2410 c3         1 8V7       0.085300
      8 C3           2.3810     3.4540    -1.0570 c3         1 8V7      -0.108100
      9 N4           3.1750     1.2330    -0.1590 na         1 8V7      -0.334000
     10 N6           5.2490     0.4780    -0.0690 nd         1 8V7      -0.349000
     11 N7           4.4060    -0.6000    -0.0260 nd         1 8V7      -0.361000
     12 C9           1.9480    -0.9840    -0.0130 cc         1 8V7       0.380400
     13 N10          0.6760    -0.5710    -0.0310 nd         1 8V7      -0.664000
     14 C11         -0.2100    -1.6520     0.0490 cd         1 8V7       0.210500
     15 C12          0.4210    -2.8750     0.1230 cc         1 8V7      -0.226000
     16 S13          2.1520    -2.7170     0.1010 ss         1 8V7       0.133600
     17 C14         -1.7160    -1.5750     0.0580 c          1 8V7       0.546600
     18 O15         -2.4550    -2.5540     0.1150 o          1 8V7      -0.527100
     19 N16         -2.1610    -0.2680    -0.0260 ns         1 8V7      -0.317900
     20 C18         -3.6960     1.5360    -0.5820 ca         1 8V7      -0.217000
     21 C19         -4.9850     2.0840    -0.5040 ca         1 8V7      -0.045000
     22 N22         -4.3920    -0.4260     0.6530 nb         1 8V7      -0.680000
     23 H1           4.8750     2.5910    -0.1760 h5         1 8V7       0.066100
     24 H2          -6.9860     1.7230     0.2540 ha         1 8V7       0.127000
     25 H3          -6.3820    -0.4880     1.2600 h4         1 8V7       0.024100
     26 H4           2.2870     3.0690     1.7460 hc         1 8V7       0.050700
     27 H5           0.6390     3.2050     1.0910 hc         1 8V7       0.050700
     28 H6           1.2200     1.6500     1.7140 hc         1 8V7       0.050700
     29 H7           1.2260     1.7010    -0.7920 h1         1 8V7       0.093700
     30 H8           3.1340     4.0690    -0.5490 hc         1 8V7       0.050700
     31 H9           2.7630     3.1850    -2.0500 hc         1 8V7       0.050700
     32 H10          1.4840     4.0700    -1.1980 hc         1 8V7       0.050700
     33 H11         -0.0230    -3.8600     0.1910 h4         1 8V7       0.185000
     34 H12         -1.4240     0.4190    -0.1180 hn         1 8V7       0.173000
     35 H13         -2.8960     2.0750    -1.0810 ha         1 8V7       0.118000
     36 H14         -5.2120     3.0540    -0.9440 ha         1 8V7       0.118000
@<TRIPOS>BOND
     1     1     9 1   
     2     1    10 2   
     3     1    23 1   
     4     2     9 1   
     5     2    11 2   
     6     2    12 1   
     7     3    19 1   
     8     3    20 ar  
     9     3    22 ar  
    10     4     5 ar  
    11     4    21 ar  
    12     4    24 1   
    13     5    22 ar  
    14     5    25 1   
    15     6     7 1   
    16     6    26 1   
    17     6    27 1   
    18     6    28 1   
    19     7     8 1   
    20     7     9 1   
    21     7    29 1   
    22     8    30 1   
    23     8    31 1   
    24     8    32 1   
    25    10    11 1   
    26    12    13 2   
    27    12    16 1   
    28    13    14 1   
    29    14    15 2   
    30    14    17 1   
    31    15    16 1   
    32    15    33 1   
    33    17    18 2   
    34    17    19 1   
    35    19    34 1   
    36    20    21 ar  
    37    20    35 1   
    38    21    36 1   
@<TRIPOS>SUBSTRUCTURE
     1 8V7         1 TEMP              0 ****  ****    0 ROOT
