@<TRIPOS>MOLECULE
8V7
   36    38     1     0     0
SMALL
abcg2


@<TRIPOS>ATOM
      1 C5           4.3280     1.5480    -0.0180 cc         1 8V7       0.371400
      2 C8           2.9890    -0.1100     0.0020 cc         1 8V7       0.333500
      3 C17         -3.3840     0.2260     0.0170 ca         1 8V7       0.490900
      4 C20         -5.8740     1.3200    -0.0010 ca         1 8V7      -0.200000
      5 C21         -5.6380    -0.0380     0.1070 ca         1 8V7       0.374900
      6 C1           1.9390     3.0640     1.2220 c3         1 8V7      -0.108100
      7 C2           1.9120     2.2210    -0.0440 c3         1 8V7       0.085300
      8 C3           1.9890     3.0650    -1.3080 c3         1 8V7      -0.108100
      9 N4           3.0120     1.2450    -0.0220 na         1 8V7      -0.334000
     10 N6           5.0550     0.4650     0.0050 nd         1 8V7      -0.349000
     11 N7           4.2110    -0.5800     0.0180 nd         1 8V7      -0.361000
     12 C9           1.8420    -0.9920     0.0110 cc         1 8V7       0.380400
     13 N10          0.5940    -0.6520     0.0130 nd         1 8V7      -0.664000
     14 C11         -0.2180    -1.7450     0.0230 cd         1 8V7       0.210500
     15 C12          0.4260    -2.9450     0.0290 cc         1 8V7      -0.226000
     16 S13          2.1110    -2.7020     0.0230 ss         1 8V7       0.133600
     17 C14         -1.6980    -1.6040     0.0240 c          1 8V7       0.546600
     18 O15         -2.4190    -2.5790     0.0190 o          1 8V7      -0.527100
     19 N16         -2.0980    -0.3040     0.0270 ns         1 8V7      -0.317900
     20 C18         -3.5050     1.6150    -0.0960 ca         1 8V7      -0.217000
     21 C19         -4.7720     2.1620    -0.1030 ca         1 8V7      -0.045000
     22 N22         -4.4240    -0.5820     0.1180 nb         1 8V7      -0.680000
     23 H1           4.7070     2.5580    -0.0330 h5         1 8V7       0.066100
     24 H2          -6.8840     1.7050    -0.0040 ha         1 8V7       0.127000
     25 H3          -6.4660    -0.7310     0.1910 h4         1 8V7       0.024100
     26 H4           2.8360     3.6840     1.2700 hc         1 8V7       0.050700
     27 H5           1.0760     3.7290     1.2300 hc         1 8V7       0.050700
     28 H6           1.8990     2.4420     2.1150 hc         1 8V7       0.050700
     29 H7           0.9970     1.6360    -0.0640 h1         1 8V7       0.093700
     30 H8           2.8860     3.6850    -1.3220 hc         1 8V7       0.050700
     31 H9           1.9810     2.4440    -2.2030 hc         1 8V7       0.050700
     32 H10          1.1270     3.7300    -1.3490 hc         1 8V7       0.050700
     33 H11         -0.0030    -3.9340     0.0380 h4         1 8V7       0.185000
     34 H12         -1.3470     0.3720     0.0060 hn         1 8V7       0.173000
     35 H13         -2.6290     2.2450    -0.1770 ha         1 8V7       0.118000
     36 H14         -4.8970     3.2330    -0.1870 ha         1 8V7       0.118000
@<TRIPOS>BOND
     1     1     9 1   
     2     1    10 2   
     3     1    23 1   
     4     2     9 1   
     5     2    11 2   
     6     2    12 1   
     7     3    19 1   
     8     3    20 ar  
     9     3    22 ar  
    10     4     5 ar  
    11     4    21 ar  
    12     4    24 1   
    13     5    22 ar  
    14     5    25 1   
    15     6     7 1   
    16     6    26 1   
    17     6    27 1   
    18     6    28 1   
    19     7     8 1   
    20     7     9 1   
    21     7    29 1   
    22     8    30 1   
    23     8    31 1   
    24     8    32 1   
    25    10    11 1   
    26    12    13 2   
    27    12    16 1   
    28    13    14 1   
    29    14    15 2   
    30    14    17 1   
    31    15    16 1   
    32    15    33 1   
    33    17    18 2   
    34    17    19 1   
    35    19    34 1   
    36    20    21 ar  
    37    20    35 1   
    38    21    36 1   
@<TRIPOS>SUBSTRUCTURE
     1 8V7         1 TEMP              0 ****  ****    0 ROOT
