@<TRIPOS>MOLECULE
8V8
   26    27     1     0     0
SMALL
No Charge or Current Charge


@<TRIPOS>ATOM
      1 C2           0.2510     1.3740    -0.0340 ca         1 8V8      -0.115000
      2 C6           0.4540    -1.0450     0.0500 ca         1 8V8      -0.115000
      3 C5          -0.9460    -1.1660     0.0640 ca         1 8V8      -0.009500
      4 C3          -1.1500     1.2580    -0.0200 ca         1 8V8      -0.009500
      5 C1           1.0710     0.2240    -0.0000 ca         1 8V8      -0.056500
      6 C11          2.5370     0.3260    -0.0140 cc         1 8V8       0.136500
      7 C12          3.2740     1.4810    -0.0610 cd         1 8V8       0.261900
      8 N13          4.6130     1.1300    -0.0580 nd         1 8V8      -0.679000
      9 C14          4.5920    -0.1970    -0.0100 cc         1 8V8       0.459300
     10 O15          3.3500    -0.7580     0.0190 os         1 8V8      -0.259000
     11 C16          5.7860    -1.1000     0.0140 c3         1 8V8      -0.122400
     12 C4          -1.7550    -0.0130     0.0270 ca         1 8V8      -0.264500
     13 S7          -3.5450    -0.1640     0.0450 sy         1 8V8       1.140600
     14 O8          -4.1780     1.0490    -0.4670 o          1 8V8      -0.546500
     15 O9          -3.9630    -1.4990    -0.3750 o          1 8V8      -0.546500
     16 N10         -3.9030    -0.1370     1.6360 n8         1 8V8      -1.010100
     17 H1           0.6880     2.3680    -0.0710 ha         1 8V8       0.126500
     18 H2           1.0600    -1.9480     0.0780 ha         1 8V8       0.126500
     19 H3          -1.3960    -2.1570     0.1050 ha         1 8V8       0.138500
     20 H4          -1.7600     2.1600    -0.0450 ha         1 8V8       0.138500
     21 H6           2.9420     2.5110    -0.0960 h4         1 8V8       0.051100
     22 H11          5.7890    -1.7080     0.9250 hc         1 8V8       0.067700
     23 H12          5.7740    -1.7750    -0.8490 hc         1 8V8       0.067700
     24 H13          6.7170    -0.5230    -0.0160 hc         1 8V8       0.067700
     25 H14         -4.6060     0.5980     1.6490 hn         1 8V8       0.475000
     26 H15         -4.4710    -0.9770     1.7060 hn         1 8V8       0.475000
@<TRIPOS>BOND
     1     1     4 ar  
     2     1     5 ar  
     3     1    17 1   
     4     2     3 ar  
     5     2     5 ar  
     6     2    18 1   
     7     3    12 ar  
     8     3    19 1   
     9     4    12 ar  
    10     4    20 1   
    11     5     6 1   
    12     6     7 2   
    13     6    10 1   
    14     7     8 1   
    15     7    21 1   
    16     8     9 2   
    17     9    10 1   
    18     9    11 1   
    19    11    22 1   
    20    11    23 1   
    21    11    24 1   
    22    12    13 1   
    23    13    14 2   
    24    13    15 2   
    25    13    16 1   
    26    16    25 1   
    27    16    26 1   
@<TRIPOS>SUBSTRUCTURE
     1 8V8         1 TEMP              0 ****  ****    0 ROOT
