@<TRIPOS>MOLECULE
8V8
   26    27     1     0     0
SMALL
bcc


@<TRIPOS>ATOM
      1 C2           0.1900     1.3860    -0.0020 ca         1 8V8      -0.133000
      2 C6           0.4640    -1.0050    -0.0100 ca         1 8V8      -0.133000
      3 C5          -0.9120    -1.1620    -0.0260 ca         1 8V8      -0.027500
      4 C3          -1.1810     1.2350    -0.0150 ca         1 8V8      -0.027500
      5 C1           1.0330     0.2690     0.0040 ca         1 8V8      -0.056500
      6 C11          2.4690     0.4520     0.0150 cc         1 8V8       0.180900
      7 C12          3.2930     1.5290     0.0090 cd         1 8V8       0.261900
      8 N13          4.5980     1.1010     0.0110 nd         1 8V8      -0.679000
      9 C14          4.5270    -0.1870     0.0190 cc         1 8V8       0.503700
     10 O15          3.2700    -0.6450     0.0250 os         1 8V8      -0.347800
     11 C16          5.6250    -1.1750     0.0130 c3         1 8V8      -0.122400
     12 C4          -1.7270    -0.0430    -0.0230 ca         1 8V8      -0.264500
     13 S7          -3.4880    -0.2300    -0.0300 sy         1 8V8       1.282200
     14 O8          -4.0810     0.8790    -0.7500 o          1 8V8      -0.617300
     15 O9          -3.7800    -1.6030    -0.3960 o          1 8V8      -0.617300
     16 N10         -3.8480     0.0480     1.5730 n8         1 8V8      -0.899700
     17 H1           0.6030     2.3860     0.0000 ha         1 8V8       0.144500
     18 H2           1.0880    -1.8870    -0.0120 ha         1 8V8       0.144500
     19 H3          -1.3350    -2.1570    -0.0450 ha         1 8V8       0.156500
     20 H4          -1.8170     2.1100    -0.0230 ha         1 8V8       0.156500
     21 H6           3.0400     2.5760     0.0020 h4         1 8V8       0.051100
     22 H11          5.5560    -1.8400     0.8740 hc         1 8V8       0.067700
     23 H12          5.5960    -1.7910    -0.8860 hc         1 8V8       0.067700
     24 H13          6.5800    -0.6580     0.0540 hc         1 8V8       0.067700
     25 H14         -4.7430     0.5090     1.6750 hn         1 8V8       0.419800
     26 H15         -3.7940    -0.7860     2.1440 hn         1 8V8       0.419800
@<TRIPOS>BOND
     1     1     4 ar  
     2     1     5 ar  
     3     1    17 1   
     4     2     3 ar  
     5     2     5 ar  
     6     2    18 1   
     7     3    12 ar  
     8     3    19 1   
     9     4    12 ar  
    10     4    20 1   
    11     5     6 1   
    12     6     7 2   
    13     6    10 1   
    14     7     8 1   
    15     7    21 1   
    16     8     9 2   
    17     9    10 1   
    18     9    11 1   
    19    11    22 1   
    20    11    23 1   
    21    11    24 1   
    22    12    13 1   
    23    13    14 2   
    24    13    15 2   
    25    13    16 1   
    26    16    25 1   
    27    16    26 1   
@<TRIPOS>SUBSTRUCTURE
     1 8V8         1 TEMP              0 ****  ****    0 ROOT
