@<TRIPOS>MOLECULE
8V9
   94    98     1     0     0
SMALL
No Charge or Current Charge


@<TRIPOS>ATOM
      1 C34         -6.0600     0.6750    -2.3360 ca         1 8V9      -0.055500
      2 C35         -7.0240     3.1180    -1.3350 ca         1 8V9      -0.175000
      3 C36         -5.8350     1.8680    -3.0450 ca         1 8V9      -0.175000
      4 C37         -6.3160     3.0860    -2.5460 ca         1 8V9       0.141100
      5 C32         -6.7770     0.6980    -1.1230 ca         1 8V9      -0.106300
      6 C27         -1.4400     2.2470    -1.9400 ca         1 8V9      -0.113500
      7 C28         -2.7010     2.6470    -1.4690 ca         1 8V9      -0.118000
      8 C30         -7.0300    -0.5940    -0.3500 c3         1 8V9      -0.107100
      9 C29         -6.0060    -0.7640     0.7770 c          1 8V9       0.609100
     10 C10          8.2630     1.8560     0.0680 c5         1 8V9      -0.073100
     11 S01          3.2340    -3.6430    -1.9800 ss         1 8V9      -0.429000
     12 S02         -5.4730    -3.6440     2.9280 ss         1 8V9      -0.410000
     13 O01          7.8190     0.7430    -2.1160 oh         1 8V9      -0.652000
     14 O02          3.2730     0.9990    -0.7780 o          1 8V9      -0.605100
     15 O04          3.2900    -0.9590     1.9410 o          1 8V9      -0.603100
     16 O05         -2.3490    -1.7750    -0.5290 o          1 8V9      -0.614100
     17 O06         -6.0970    -0.1710     1.8430 o          1 8V9      -0.590100
     18 O07         -6.0900     4.2360    -3.2410 oh         1 8V9      -0.534100
     19 N01          2.6980    -1.8460    -0.0910 n          1 8V9      -0.386800
     20 N02          5.5060     0.4560    -0.7750 ns         1 8V9      -0.477900
     21 N03         -1.4250    -1.3870     1.5200 ns         1 8V9      -0.484900
     22 N04         -4.9570    -1.6080     0.4880 ns         1 8V9      -0.500900
     23 C01          3.9750    -1.3980    -0.7500 c5         1 8V9       0.026700
     24 C02          3.9020    -1.9440    -2.2230 c5         1 8V9       0.108000
     25 C03          5.9030     1.8660    -0.8430 c5         1 8V9       0.171000
     26 C04          2.0260    -2.9990    -0.7400 c5         1 8V9       0.238000
     27 C05          4.1600     0.1530    -0.7750 c          1 8V9       0.615100
     28 C06          7.4420     1.8490    -1.2800 c5         1 8V9       0.149300
     29 C07          5.2890    -2.0800    -2.8960 c3         1 8V9      -0.087600
     30 C08          2.9540    -1.1670    -3.1800 c3         1 8V9      -0.087600
     31 C09          6.0040     2.5380     0.5040 ca         1 8V9      -0.126300
     32 C11          7.2940     2.5370     0.9970 ca         1 8V9      -0.083300
     33 C13          1.0080    -1.7670     1.8410 c3         1 8V9       0.091300
     34 C14         -0.0890    -0.9730     1.0720 c3         1 8V9       0.087700
     35 C15          4.9540     3.1170     1.2350 ca         1 8V9      -0.061000
     36 C16          7.5920     3.1100     2.2440 ca         1 8V9      -0.100000
     37 C17          0.0560     0.5700     1.1690 c3         1 8V9      -0.051100
     38 C18          5.2340     3.7000     2.4860 ca         1 8V9      -0.112000
     39 C19          6.5520     3.6970     2.9900 ca         1 8V9      -0.100000
     40 C20         -0.9130     1.3080     0.2510 ca         1 8V9      -0.087300
     41 C22         -3.8350    -1.9170     1.4070 c3         1 8V9       0.048700
     42 C23         -2.1800     1.7140     0.7180 ca         1 8V9      -0.100500
     43 C24         -0.5490     1.5770    -1.0830 ca         1 8V9      -0.100500
     44 C25         -3.9280    -3.3660     1.9410 c3         1 8V9       0.044600
     45 C26         -3.0730     2.3770    -0.1420 ca         1 8V9      -0.113500
     46 C31         -5.2580    -5.4290     3.3610 c3         1 8V9       0.033900
     47 C33         -7.2550     1.9260    -0.6250 ca         1 8V9      -0.055500
     48 C21         -2.4810    -1.6940     0.6860 c          1 8V9       0.583100
     49 H1          -5.6790    -0.2640    -2.7320 ha         1 8V9       0.113500
     50 H2          -7.3990     4.0580    -0.9380 ha         1 8V9       0.120500
     51 H3          -5.2830     1.8450    -3.9820 ha         1 8V9       0.120500
     52 H4          -1.1520     2.4530    -2.9680 ha         1 8V9       0.116500
     53 H5          -3.3880     3.1660    -2.1330 ha         1 8V9       0.106000
     54 H6          -8.0330    -0.5640     0.0910 hc         1 8V9       0.067700
     55 H7          -6.9640    -1.4440    -1.0390 hc         1 8V9       0.067700
     56 H9           9.2120     2.3950    -0.0310 hc         1 8V9       0.058700
     57 H10          8.7560     0.8880    -2.3750 ho         1 8V9       0.449000
     58 H12         -6.5030     4.9800    -2.7520 ho         1 8V9       0.464000
     59 H13          6.1760    -0.3010    -0.8200 hn         1 8V9       0.324500
     60 H14         -1.6100    -1.3670     2.5170 hn         1 8V9       0.329500
     61 H15         -4.9380    -2.0110    -0.4420 hn         1 8V9       0.326500
     62 H16          4.8260    -1.8400    -0.2170 h1         1 8V9       0.081700
     63 H17          5.2970     2.4500    -1.5490 h1         1 8V9       0.093700
     64 H18          1.1240    -2.6240    -1.2400 h2         1 8V9       0.087200
     65 H19          1.8090    -3.7650     0.0150 h2         1 8V9       0.087200
     66 H20          7.6470     2.7900    -1.8100 h1         1 8V9       0.046700
     67 H21          5.2150    -2.6120    -3.8520 hc         1 8V9       0.054533
     68 H22          5.7360    -1.1000    -3.1020 hc         1 8V9       0.054533
     69 H23          5.9870    -2.6400    -2.2620 hc         1 8V9       0.054533
     70 H24          1.9630    -1.0080    -2.7400 hc         1 8V9       0.054533
     71 H25          3.3600    -0.1800    -3.4340 hc         1 8V9       0.054533
     72 H26          2.8120    -1.7110    -4.1210 hc         1 8V9       0.054533
     73 H27          0.8050    -2.8350     1.6970 h1         1 8V9       0.080700
     74 H28          0.0060    -1.2290     0.0090 h1         1 8V9       0.090700
     75 H29          3.9390     3.1150     0.8440 ha         1 8V9       0.133000
     76 H30          8.6090     3.1010     2.6280 ha         1 8V9       0.114000
     77 H31         -0.0950     0.8860     2.2090 hc         1 8V9       0.068200
     78 H32          1.0830     0.8590     0.9170 hc         1 8V9       0.068200
     79 H33          4.4320     4.1530     3.0650 ha         1 8V9       0.117000
     80 H34          6.7650     4.1470     3.9580 ha         1 8V9       0.113000
     81 H35         -3.8620    -1.2260     2.2600 h1         1 8V9       0.099700
     82 H36         -2.4750     1.5090     1.7440 ha         1 8V9       0.122000
     83 H37          0.4250     1.2670    -1.4570 ha         1 8V9       0.122000
     84 H38         -3.0610    -3.5780     2.5800 h1         1 8V9       0.071700
     85 H39         -3.9090    -4.0700     1.0980 h1         1 8V9       0.071700
     86 H40         -4.0530     2.6810     0.2200 ha         1 8V9       0.116500
     87 H41         -5.2040    -6.0310     2.4460 h1         1 8V9       0.060700
     88 H42         -4.3340    -5.5650     3.9380 h1         1 8V9       0.060700
     89 H43         -6.1100    -5.7690     3.9640 h1         1 8V9       0.060700
     90 H44         -7.8050     1.9580     0.3140 ha         1 8V9       0.113500
     91 C12          2.4340    -1.5070     1.2540 c          1 8V9       0.578100
     92 O03          0.9470    -1.4610     3.2610 oh         1 8V9      -0.653000
     93 H8           8.4910     0.8410     0.4140 hc         1 8V9       0.058700
     94 H11          1.8270    -1.0790     3.4930 ho         1 8V9       0.476000
@<TRIPOS>BOND
     1     1     3 ar  
     2     1     5 ar  
     3     1    49 1   
     4     2     4 ar  
     5     2    47 ar  
     6     2    50 1   
     7     3     4 ar  
     8     3    51 1   
     9     4    18 1   
    10     5     8 1   
    11     5    47 ar  
    12     6     7 ar  
    13     6    43 ar  
    14     6    52 1   
    15     7    45 ar  
    16     7    53 1   
    17     8     9 1   
    18     8    54 1   
    19     8    55 1   
    20     9    17 2   
    21     9    22 1   
    22    10    28 1   
    23    10    32 1   
    24    10    56 1   
    25    10    93 1   
    26    11    24 1   
    27    11    26 1   
    28    12    44 1   
    29    12    46 1   
    30    13    28 1   
    31    13    57 1   
    32    14    27 2   
    33    15    91 2   
    34    16    48 2   
    35    18    58 1   
    36    19    23 1   
    37    19    26 1   
    38    19    91 1   
    39    20    25 1   
    40    20    27 1   
    41    20    59 1   
    42    21    34 1   
    43    21    48 1   
    44    21    60 1   
    45    22    41 1   
    46    22    61 1   
    47    23    24 1   
    48    23    27 1   
    49    23    62 1   
    50    24    29 1   
    51    24    30 1   
    52    25    28 1   
    53    25    31 1   
    54    25    63 1   
    55    26    64 1   
    56    26    65 1   
    57    28    66 1   
    58    29    67 1   
    59    29    68 1   
    60    29    69 1   
    61    30    70 1   
    62    30    71 1   
    63    30    72 1   
    64    31    32 ar  
    65    31    35 ar  
    66    32    36 ar  
    67    33    34 1   
    68    33    73 1   
    69    33    91 1   
    70    33    92 1   
    71    34    37 1   
    72    34    74 1   
    73    35    38 ar  
    74    35    75 1   
    75    36    39 ar  
    76    36    76 1   
    77    37    40 1   
    78    37    77 1   
    79    37    78 1   
    80    38    39 ar  
    81    38    79 1   
    82    39    80 1   
    83    40    42 ar  
    84    40    43 ar  
    85    41    44 1   
    86    41    48 1   
    87    41    81 1   
    88    42    45 ar  
    89    42    82 1   
    90    43    83 1   
    91    44    84 1   
    92    44    85 1   
    93    45    86 1   
    94    46    87 1   
    95    46    88 1   
    96    46    89 1   
    97    47    90 1   
    98    92    94 1   
@<TRIPOS>SUBSTRUCTURE
     1 8V9         1 TEMP              0 ****  ****    0 ROOT
