@<TRIPOS>MOLECULE
8V9
   94    98     1     0     0
SMALL
bcc


@<TRIPOS>ATOM
      1 C34         -6.4480     2.5270    -1.6860 ca         1 8V9      -0.073500
      2 C35         -8.6920     2.3940    -0.0810 ca         1 8V9      -0.193000
      3 C36         -7.2630     3.6430    -1.5560 ca         1 8V9      -0.193000
      4 C37         -8.3930     3.5820    -0.7460 ca         1 8V9       0.141100
      5 C32         -6.7280     1.3370    -1.0240 ca         1 8V9      -0.106300
      6 C27         -1.0300     1.8190    -2.5240 ca         1 8V9      -0.131500
      7 C28         -2.2970     2.2920    -2.2010 ca         1 8V9      -0.136000
      8 C30         -5.8430     0.1380    -1.1660 c3         1 8V9      -0.107100
      9 C29         -5.0820    -0.2030     0.1050 c          1 8V9       0.676100
     10 C10          8.1850     1.8720    -0.1040 c5         1 8V9      -0.073100
     11 S01          3.3930    -4.1320    -1.0920 ss         1 8V9      -0.333200
     12 S02         -5.6070    -3.4550     2.0500 ss         1 8V9      -0.314200
     13 O01          7.7760     0.4970    -2.1400 oh         1 8V9      -0.589800
     14 O02          3.3460     0.4340    -1.0110 o          1 8V9      -0.605100
     15 O04          3.2410    -0.6130     1.9620 o          1 8V9      -0.603100
     16 O05         -1.8620    -2.3370    -0.5330 o          1 8V9      -0.614100
     17 O06         -5.0110     0.5490     1.0600 o          1 8V9      -0.590100
     18 O07         -9.1590     4.6870    -0.6410 oh         1 8V9      -0.495100
     19 N01          2.8330    -1.9930     0.2370 n          1 8V9      -0.453800
     20 N02          5.5590     0.1890    -0.6270 ns         1 8V9      -0.544900
     21 N03         -1.2900    -1.1560     1.3130 ns         1 8V9      -0.551900
     22 N04         -4.4900    -1.4160     0.0670 ns         1 8V9      -0.567900
     23 C01          4.1490    -1.7280    -0.3130 c5         1 8V9       0.026700
     24 C02          4.3400    -2.6310    -1.5600 c5         1 8V9       0.060100
     25 C03          5.9280     1.5450    -0.9780 c5         1 8V9       0.171000
     26 C04          2.1060    -3.0830    -0.3870 c5         1 8V9       0.190100
     27 C05          4.2940    -0.2490    -0.6660 c          1 8V9       0.682100
     28 C06          7.4050     1.6320    -1.4090 c5         1 8V9       0.126100
     29 C07          5.8020    -3.0030    -1.7610 c3         1 8V9      -0.087600
     30 C08          3.7670    -2.0390    -2.8440 c3         1 8V9      -0.087600
     31 C09          5.9040     2.4550     0.2240 ca         1 8V9      -0.126300
     32 C11          7.1900     2.6310     0.7260 ca         1 8V9      -0.083300
     33 C13          1.0530    -1.5420     1.8880 c3         1 8V9       0.068100
     34 C14          0.0670    -0.8510     0.9260 c3         1 8V9       0.087700
     35 C15          4.8090     3.0380     0.8410 ca         1 8V9      -0.079000
     36 C16          7.3990     3.4130     1.8520 ca         1 8V9      -0.118000
     37 C17          0.2640     0.6690     0.8490 c3         1 8V9      -0.051100
     38 C18          5.0190     3.8200     1.9710 ca         1 8V9      -0.130000
     39 C19          6.3040     4.0060     2.4710 ca         1 8V9      -0.118000
     40 C20         -0.6240     1.2690    -0.2040 ca         1 8V9      -0.087300
     41 C22         -3.5830    -1.9040     1.0750 c3         1 8V9       0.048700
     42 C23         -1.8950     1.7420     0.1070 ca         1 8V9      -0.118500
     43 C24         -0.2030     1.3110    -1.5320 ca         1 8V9      -0.118500
     44 C25         -3.8980    -3.3460     1.4520 c3         1 8V9      -0.003300
     45 C26         -2.7270     2.2510    -0.8820 ca         1 8V9      -0.131500
     46 C31         -5.5790    -5.1430     2.6950 c3         1 8V9      -0.014000
     47 C33         -7.8650     1.2920    -0.2240 ca         1 8V9      -0.073500
     48 C21         -2.1540    -1.8200     0.5330 c          1 8V9       0.650100
     49 H1          -5.5760     2.5910    -2.3270 ha         1 8V9       0.131500
     50 H2          -9.5710     2.3300     0.5510 ha         1 8V9       0.138500
     51 H3          -7.0260     4.5580    -2.0830 ha         1 8V9       0.138500
     52 H4          -0.6850     1.8480    -3.5500 ha         1 8V9       0.134500
     53 H5          -2.9410     2.6920    -2.9750 ha         1 8V9       0.124000
     54 H6          -6.4190    -0.7370    -1.4830 hc         1 8V9       0.067700
     55 H7          -5.1020     0.3030    -1.9550 hc         1 8V9       0.067700
     56 H9           9.1180     2.4130    -0.2700 hc         1 8V9       0.058700
     57 H10          8.6810     0.6150    -2.4430 ho         1 8V9       0.410000
     58 H12         -9.9100     4.5190    -0.0600 ho         1 8V9       0.425000
     59 H13          6.2670    -0.4120    -0.2340 hn         1 8V9       0.324500
     60 H14         -1.6290    -0.7430     2.1690 hn         1 8V9       0.329500
     61 H15         -4.5610    -1.9570    -0.7820 hn         1 8V9       0.326500
     62 H16          4.9090    -1.9990     0.4270 h1         1 8V9       0.081700
     63 H17          5.2600     1.8790    -1.7730 h1         1 8V9       0.093700
     64 H18          1.4280    -2.7300    -1.1660 h2         1 8V9       0.087200
     65 H19          1.5340    -3.6620     0.3350 h2         1 8V9       0.087200
     66 H20          7.4910     2.5430    -2.0160 h1         1 8V9       0.046700
     67 H21          5.9060    -3.7240    -2.5710 hc         1 8V9       0.054533
     68 H22          6.3810    -2.1190    -2.0370 hc         1 8V9       0.054533
     69 H23          6.2390    -3.4340    -0.8600 hc         1 8V9       0.054533
     70 H24          2.7280    -1.7260    -2.7450 hc         1 8V9       0.054533
     71 H25          4.3460    -1.1710    -3.1620 hc         1 8V9       0.054533
     72 H26          3.8240    -2.7800    -3.6410 hc         1 8V9       0.054533
     73 H27          0.7920    -2.6060     1.9180 h1         1 8V9       0.080700
     74 H28          0.2050    -1.2660    -0.0720 h1         1 8V9       0.090700
     75 H29          3.8100     2.8870     0.4520 ha         1 8V9       0.151000
     76 H30          8.3970     3.5610     2.2470 ha         1 8V9       0.132000
     77 H31          0.0530     1.1160     1.8240 hc         1 8V9       0.068200
     78 H32          1.3070     0.8830     0.6100 hc         1 8V9       0.068200
     79 H33          4.1780     4.2910     2.4650 ha         1 8V9       0.135000
     80 H34          6.4520     4.6200     3.3500 ha         1 8V9       0.131000
     81 H35         -3.6980    -1.2720     1.9560 h1         1 8V9       0.099700
     82 H36         -2.2450     1.7150     1.1310 ha         1 8V9       0.140000
     83 H37          0.7850     0.9430    -1.7840 ha         1 8V9       0.140000
     84 H38         -3.2190    -3.6680     2.2440 h1         1 8V9       0.071700
     85 H39         -3.7600    -4.0100     0.5970 h1         1 8V9       0.071700
     86 H40         -3.7110     2.6140    -0.6150 ha         1 8V9       0.134500
     87 H41         -5.3610    -5.8610     1.9060 h1         1 8V9       0.060700
     88 H42         -4.8480    -5.2510     3.4950 h1         1 8V9       0.060700
     89 H43         -6.5680    -5.3550     3.0950 h1         1 8V9       0.060700
     90 H44         -8.1220     0.3780     0.3000 ha         1 8V9       0.131500
     91 C12          2.4780    -1.3640     1.3710 c          1 8V9       0.645100
     92 O03          0.9520    -1.0370     3.1830 oh         1 8V9      -0.590800
     93 H8           8.4470     0.9220     0.3740 hc         1 8V9       0.058700
     94 H11          1.6880    -0.4210     3.3110 ho         1 8V9       0.437000
@<TRIPOS>BOND
     1     1     3 ar  
     2     1     5 ar  
     3     1    49 1   
     4     2     4 ar  
     5     2    47 ar  
     6     2    50 1   
     7     3     4 ar  
     8     3    51 1   
     9     4    18 1   
    10     5     8 1   
    11     5    47 ar  
    12     6     7 ar  
    13     6    43 ar  
    14     6    52 1   
    15     7    45 ar  
    16     7    53 1   
    17     8     9 1   
    18     8    54 1   
    19     8    55 1   
    20     9    17 2   
    21     9    22 1   
    22    10    28 1   
    23    10    32 1   
    24    10    56 1   
    25    10    93 1   
    26    11    24 1   
    27    11    26 1   
    28    12    44 1   
    29    12    46 1   
    30    13    28 1   
    31    13    57 1   
    32    14    27 2   
    33    15    91 2   
    34    16    48 2   
    35    18    58 1   
    36    19    23 1   
    37    19    26 1   
    38    19    91 1   
    39    20    25 1   
    40    20    27 1   
    41    20    59 1   
    42    21    34 1   
    43    21    48 1   
    44    21    60 1   
    45    22    41 1   
    46    22    61 1   
    47    23    24 1   
    48    23    27 1   
    49    23    62 1   
    50    24    29 1   
    51    24    30 1   
    52    25    28 1   
    53    25    31 1   
    54    25    63 1   
    55    26    64 1   
    56    26    65 1   
    57    28    66 1   
    58    29    67 1   
    59    29    68 1   
    60    29    69 1   
    61    30    70 1   
    62    30    71 1   
    63    30    72 1   
    64    31    32 ar  
    65    31    35 ar  
    66    32    36 ar  
    67    33    34 1   
    68    33    73 1   
    69    33    91 1   
    70    33    92 1   
    71    34    37 1   
    72    34    74 1   
    73    35    38 ar  
    74    35    75 1   
    75    36    39 ar  
    76    36    76 1   
    77    37    40 1   
    78    37    77 1   
    79    37    78 1   
    80    38    39 ar  
    81    38    79 1   
    82    39    80 1   
    83    40    42 ar  
    84    40    43 ar  
    85    41    44 1   
    86    41    48 1   
    87    41    81 1   
    88    42    45 ar  
    89    42    82 1   
    90    43    83 1   
    91    44    84 1   
    92    44    85 1   
    93    45    86 1   
    94    46    87 1   
    95    46    88 1   
    96    46    89 1   
    97    47    90 1   
    98    92    94 1   
@<TRIPOS>SUBSTRUCTURE
     1 8V9         1 TEMP              0 ****  ****    0 ROOT
