@<TRIPOS>MOLECULE
8VC
  105   109     1     0     0
SMALL
No Charge or Current Charge


@<TRIPOS>ATOM
      1 C10         -1.8280     0.6660     0.5130 c          1 8VC       0.603100
      2 C13          0.4880     0.3570    -0.4560 c3         1 8VC       0.090700
      3 C16         -0.7890    -2.7820     0.2920 ca         1 8VC      -0.103000
      4 C17         -1.3780    -3.5520     1.3100 ca         1 8VC      -0.110500
      5 C18         -0.8440    -3.5270     2.6090 ca         1 8VC      -0.107000
      6 C19          0.2800    -2.7310     2.8890 ca         1 8VC      -0.110500
      7 C20          0.8680    -1.9600     1.8720 ca         1 8VC      -0.103000
      8 C21          1.1510     1.2930    -1.5100 c3         1 8VC       0.092300
      9 C22          2.6910     1.4240    -1.2790 c          1 8VC       0.581100
     10 C25          2.3900     3.0020     0.6680 c5         1 8VC       0.237000
     11 C27          4.7550     2.5710     1.7000 c5         1 8VC       0.103000
     12 C28          4.6250     1.8980     0.2840 c5         1 8VC       0.026700
     13 C02         -5.9060    -1.0710     1.3530 ca         1 8VC      -0.038300
     14 C03         -7.2730    -1.3890     1.2420 ca         1 8VC      -0.186000
     15 C04         -8.2390    -0.3850     1.0410 ca         1 8VC       0.334000
     16 C05         -7.8190     0.9560     0.9560 ca         1 8VC      -0.186000
     17 C06         -6.4580     1.2980     1.0610 ca         1 8VC      -0.038300
     18 C07         -5.5010     0.2790     1.2500 ca         1 8VC       0.035100
     19 O08         -4.1700     0.6090     1.3470 os         1 8VC      -0.324100
     20 C09         -3.3260     0.4740     0.1820 c3         1 8VC       0.077600
     21 O11         -1.4090     0.9890     1.6190 o          1 8VC      -0.575100
     22 N12         -0.9770     0.4250    -0.5480 ns         1 8VC      -0.506900
     23 C14          0.9610    -1.1200    -0.5250 c3         1 8VC      -0.053100
     24 C15          0.3360    -1.9800     0.5680 ca         1 8VC      -0.080300
     25 O23          3.4770     1.0020    -2.1220 o          1 8VC      -0.612100
     26 N24          3.1630     1.9660    -0.0630 n          1 8VC      -0.386800
     27 S26          3.6490     4.0350     1.5420 ss         1 8VC      -0.422000
     28 N31          6.5390     0.4650     0.0450 ns         1 8VC      -0.480900
     29 C32          7.2830    -0.7970     0.0420 c5         1 8VC       0.160000
     30 C33          8.7910    -0.3990     0.4060 c5         1 8VC       0.155300
     31 C34          9.6830    -1.4260    -0.3980 c5         1 8VC      -0.064100
     32 C35          8.7820    -1.7630    -1.5590 ca         1 8VC      -0.080300
     33 C36          9.1620    -2.3690    -2.7670 ca         1 8VC      -0.098000
     34 C37          8.1770    -2.6200    -3.7430 ca         1 8VC      -0.107000
     35 C38          6.8330    -2.2680    -3.4990 ca         1 8VC      -0.112000
     36 C39          6.4700    -1.6650    -2.2790 ca         1 8VC      -0.072000
     37 C40          7.4670    -1.4180    -1.3190 ca         1 8VC      -0.109300
     38 O41          9.1350     0.9540     0.0470 oh         1 8VC      -0.661000
     39 C42          4.2720     1.7060     2.8980 c3         1 8VC      -0.085100
     40 C43          6.1810     3.0930     2.0020 c3         1 8VC      -0.085100
     41 O44          0.8470     0.8360    -2.8570 oh         1 8VC      -0.653000
     42 C45         -6.0330     2.7590     0.9640 c3         1 8VC      -0.047300
     43 N46         -9.6110    -0.7170     0.9240 nh         1 8VC      -0.818400
     44 C47        -10.1910    -1.8570     1.6700 c3         1 8VC       0.207100
     45 C48        -10.4960    -0.0240    -0.0550 c3         1 8VC       0.220800
     46 C49         -9.9700    -0.0220    -1.5210 c3         1 8VC       0.130800
     47 N50        -10.8820     0.5740    -2.5400 n3         1 8VC      -0.716600
     48 C51        -11.1800     2.0070    -2.3040 c3         1 8VC       0.151100
     49 C52        -10.4060     0.3310    -3.9210 c3         1 8VC       0.151100
     50 H1           0.7800     0.7260     0.5350 h1         1 8VC       0.091700
     51 H2          -1.2130    -2.8030    -0.7100 ha         1 8VC       0.114500
     52 H3          -2.2470    -4.1680     1.0910 ha         1 8VC       0.109500
     53 H4          -1.3000    -4.1220     3.3970 ha         1 8VC       0.110000
     54 H5           0.6940    -2.7100     3.8950 ha         1 8VC       0.109500
     55 H6           1.7350    -1.3430     2.0980 ha         1 8VC       0.114500
     56 H7           0.7300     2.2970    -1.3710 h1         1 8VC       0.083700
     57 H8           1.8300     3.6120    -0.0520 h2         1 8VC       0.090200
     58 H9           1.7430     2.4910     1.3910 h2         1 8VC       0.090200
     59 H11          5.1960     2.4620    -0.4650 h1         1 8VC       0.085700
     60 H12         -4.4500    -2.5170     0.6350 hc         1 8VC       0.045200
     61 H13         -4.0830    -1.8740     2.2470 hc         1 8VC       0.045200
     62 H14         -5.3650    -3.0680     2.0450 hc         1 8VC       0.045200
     63 H15         -7.5820    -2.4280     1.3020 ha         1 8VC       0.112500
     64 H16         -8.5550     1.7410     0.8150 ha         1 8VC       0.112500
     65 H17         -3.6030     1.2100    -0.5820 h1         1 8VC       0.040700
     66 H18         -3.4360    -0.5240    -0.2600 h1         1 8VC       0.040700
     67 H19         -1.4040     0.1920    -1.4370 hn         1 8VC       0.318500
     68 H20          0.7220    -1.5350    -1.5120 hc         1 8VC       0.066700
     69 H21          2.0530    -1.1590    -0.4400 hc         1 8VC       0.066700
     70 H23          6.9920     1.3540    -0.1350 hn         1 8VC       0.334500
     71 H24          6.8950    -1.5380     0.7550 h1         1 8VC       0.090700
     72 H25          8.9540    -0.5250     1.4850 h1         1 8VC       0.044700
     73 H26         10.6440    -1.0030    -0.7100 hc         1 8VC       0.059700
     74 H27          9.8990    -2.3170     0.2030 hc         1 8VC       0.059700
     75 H28         10.2000    -2.6410    -2.9480 ha         1 8VC       0.112000
     76 H29          8.4540    -3.0880    -4.6850 ha         1 8VC       0.111000
     77 H30          6.0750    -2.4640    -4.2530 ha         1 8VC       0.114000
     78 H31          5.4340    -1.3930    -2.0850 ha         1 8VC       0.135000
     79 H32         10.0850     1.0740     0.2670 ho         1 8VC       0.447000
     80 H33          4.9560     0.8710     3.0930 hc         1 8VC       0.053033
     81 H34          4.2180     2.3020     3.8170 hc         1 8VC       0.053033
     82 H35          3.2780     1.2790     2.7250 hc         1 8VC       0.053033
     83 H36          6.5530     3.7290     1.1890 hc         1 8VC       0.053033
     84 H37          6.1960     3.6930     2.9200 hc         1 8VC       0.053033
     85 H38          6.8940     2.2710     2.1370 hc         1 8VC       0.053033
     86 H39          1.7180     0.6300    -3.2740 ho         1 8VC       0.473000
     87 H40         -5.4110     3.0460     1.8200 hc         1 8VC       0.045200
     88 H41         -5.4530     2.9380     0.0520 hc         1 8VC       0.045200
     89 H42         -6.8970     3.4350     0.9460 hc         1 8VC       0.045200
     90 H43         -9.6580    -2.0110     2.6180 h1         1 8VC       0.035367
     91 H44        -11.2460    -1.6680     1.9110 h1         1 8VC       0.035367
     92 H45        -10.1270    -2.7780     1.0750 h1         1 8VC       0.035367
     93 H46        -11.4850    -0.5020    -0.0640 h1         1 8VC       0.059200
     94 H47        -10.6570     1.0110     0.2740 h1         1 8VC       0.059200
     95 H48         -9.0040     0.5000    -1.5450 h1         1 8VC       0.037200
     96 H49         -9.7680    -1.0680    -1.7900 h1         1 8VC       0.037200
     97 H51        -10.2600     2.6070    -2.3230 h1         1 8VC       0.030867
     98 H52        -11.8570     2.3940    -3.0770 h1         1 8VC       0.030867
     99 H53        -11.6700     2.1560    -1.3330 h1         1 8VC       0.030867
    100 H54        -10.2710    -0.7430    -4.1020 h1         1 8VC       0.030867
    101 H55        -11.1320     0.7070    -4.6540 h1         1 8VC       0.030867
    102 H56         -9.4450     0.8330    -4.0980 h1         1 8VC       0.030867
    103 C29          5.1920     0.4440     0.3410 c          1 8VC       0.611100
    104 O30          4.5670    -0.5820     0.5820 o          1 8VC      -0.600100
    105 C01         -4.8950    -2.1920     1.5820 c3         1 8VC      -0.047300
@<TRIPOS>BOND
     1     1    20 1   
     2     1    21 2   
     3     1    22 1   
     4     2     8 1   
     5     2    22 1   
     6     2    23 1   
     7     2    50 1   
     8     3     4 ar  
     9     3    24 ar  
    10     3    51 1   
    11     4     5 ar  
    12     4    52 1   
    13     5     6 ar  
    14     5    53 1   
    15     6     7 ar  
    16     6    54 1   
    17     7    24 ar  
    18     7    55 1   
    19     8     9 1   
    20     8    41 1   
    21     8    56 1   
    22     9    25 2   
    23     9    26 1   
    24    10    26 1   
    25    10    27 1   
    26    10    57 1   
    27    10    58 1   
    28    11    12 1   
    29    11    27 1   
    30    11    39 1   
    31    11    40 1   
    32    12    26 1   
    33    12    59 1   
    34    12   103 1   
    35    13    14 ar  
    36    13    18 ar  
    37    13   105 1   
    38    14    15 ar  
    39    14    63 1   
    40    15    16 ar  
    41    15    43 1   
    42    16    17 ar  
    43    16    64 1   
    44    17    18 ar  
    45    17    42 1   
    46    18    19 1   
    47    19    20 1   
    48    20    65 1   
    49    20    66 1   
    50    22    67 1   
    51    23    24 1   
    52    23    68 1   
    53    23    69 1   
    54    28    29 1   
    55    28    70 1   
    56    28   103 1   
    57    29    30 1   
    58    29    37 1   
    59    29    71 1   
    60    30    31 1   
    61    30    38 1   
    62    30    72 1   
    63    31    32 1   
    64    31    73 1   
    65    31    74 1   
    66    32    33 ar  
    67    32    37 ar  
    68    33    34 ar  
    69    33    75 1   
    70    34    35 ar  
    71    34    76 1   
    72    35    36 ar  
    73    35    77 1   
    74    36    37 ar  
    75    36    78 1   
    76    38    79 1   
    77    39    80 1   
    78    39    81 1   
    79    39    82 1   
    80    40    83 1   
    81    40    84 1   
    82    40    85 1   
    83    41    86 1   
    84    42    87 1   
    85    42    88 1   
    86    42    89 1   
    87    43    44 1   
    88    43    45 1   
    89    44    90 1   
    90    44    91 1   
    91    44    92 1   
    92    45    46 1   
    93    45    93 1   
    94    45    94 1   
    95    46    47 1   
    96    46    95 1   
    97    46    96 1   
    98    47    48 1   
    99    47    49 1   
   100    48    97 1   
   101    48    98 1   
   102    48    99 1   
   103    49   100 1   
   104    49   101 1   
   105    49   102 1   
   106    60   105 1   
   107    61   105 1   
   108    62   105 1   
   109   103   104 2   
@<TRIPOS>SUBSTRUCTURE
     1 8VC         1 TEMP              0 ****  ****    0 ROOT
