@<TRIPOS>MOLECULE
8VC
  105   109     1     0     0
SMALL
abcg2


@<TRIPOS>ATOM
      1 C10         -1.6990     0.5230     0.2200 c          1 8VC       0.603100
      2 C13          0.5810     0.2450    -0.6470 c3         1 8VC       0.090700
      3 C16         -0.5140    -2.8740     0.0920 ca         1 8VC      -0.103000
      4 C17         -1.0570    -3.6310     1.1230 ca         1 8VC      -0.110500
      5 C18         -0.5020    -3.5790     2.3940 ca         1 8VC      -0.107000
      6 C19          0.6000    -2.7650     2.6270 ca         1 8VC      -0.110500
      7 C20          1.1370    -2.0090     1.5960 ca         1 8VC      -0.103000
      8 C21          1.2020     1.2300    -1.6560 c3         1 8VC       0.092300
      9 C22          2.6840     1.4110    -1.3420 c          1 8VC       0.581100
     10 C25          2.1370     2.8390     0.6200 c5         1 8VC       0.237000
     11 C27          4.5610     2.9640     1.4410 c5         1 8VC       0.103000
     12 C28          4.4290     2.1090     0.1520 c5         1 8VC       0.026700
     13 C02         -5.6310    -1.2400     1.0810 ca         1 8VC      -0.038300
     14 C03         -6.9840    -1.5600     1.0060 ca         1 8VC      -0.186000
     15 C04         -7.9690    -0.5850     0.7910 ca         1 8VC       0.334000
     16 C05         -7.5310     0.7430     0.6400 ca         1 8VC      -0.186000
     17 C06         -6.1880     1.0850     0.7090 ca         1 8VC      -0.038300
     18 C07         -5.2400     0.0870     0.9310 ca         1 8VC       0.035100
     19 O08         -3.9180     0.4400     1.0480 os         1 8VC      -0.324100
     20 C09         -3.1540     0.2440    -0.1130 c3         1 8VC       0.077600
     21 O11         -1.3490     0.9800     1.2920 o          1 8VC      -0.575100
     22 N12         -0.8540     0.2260    -0.7870 ns         1 8VC      -0.506900
     23 C14          1.1450    -1.1770    -0.7690 c3         1 8VC      -0.053100
     24 C15          0.5870    -2.0540     0.3160 ca         1 8VC      -0.080300
     25 O23          3.5220     0.9290    -2.0930 o          1 8VC      -0.612100
     26 N24          3.0260     2.0470    -0.2090 n          1 8VC      -0.386800
     27 S26          3.1860     4.1640     1.2500 ss         1 8VC      -0.422000
     28 N31          6.2990     0.6000     0.1140 ns         1 8VC      -0.480900
     29 C32          7.0470    -0.6140     0.2930 c5         1 8VC       0.160000
     30 C33          8.4860    -0.3710     0.7820 c5         1 8VC       0.155300
     31 C34          9.2130    -1.6580     0.3650 c5         1 8VC      -0.064100
     32 C35          8.5030    -2.0520    -0.9000 ca         1 8VC      -0.080300
     33 C36          8.9140    -2.8860    -1.9270 ca         1 8VC      -0.098000
     34 C37          8.0600    -3.0930    -3.0080 ca         1 8VC      -0.107000
     35 C38          6.8150    -2.4740    -3.0570 ca         1 8VC      -0.112000
     36 C39          6.4010    -1.6380    -2.0230 ca         1 8VC      -0.072000
     37 C40          7.2560    -1.4390    -0.9540 ca         1 8VC      -0.109300
     38 O41          8.9730     0.7520     0.0850 oh         1 8VC      -0.661000
     39 C42          4.3710     2.1740     2.7330 c3         1 8VC      -0.085100
     40 C43          5.8810     3.7200     1.4670 c3         1 8VC      -0.085100
     41 O44          1.0430     0.7950    -2.9720 oh         1 8VC      -0.653000
     42 C45         -5.7670     2.5200     0.5690 c3         1 8VC      -0.047300
     43 N46         -9.3060    -0.9190     0.7630 nh         1 8VC      -0.818400
     44 C47         -9.6810    -2.3140     0.7490 c3         1 8VC       0.207100
     45 C48        -10.2930     0.0290     0.2960 c3         1 8VC       0.220800
     46 C49        -10.3160     0.1740    -1.2270 c3         1 8VC       0.130800
     47 N50        -11.2590     1.1850    -1.6650 n3         1 8VC      -0.716600
     48 C51        -10.7620     2.5270    -1.4510 c3         1 8VC       0.151100
     49 C52        -11.6400     1.0000    -3.0490 c3         1 8VC       0.151100
     50 H1           0.7860     0.6070     0.3610 h1         1 8VC       0.091700
     51 H2          -0.9500    -2.9270    -0.8990 ha         1 8VC       0.114500
     52 H3          -1.9150    -4.2640     0.9330 ha         1 8VC       0.109500
     53 H4          -0.9240    -4.1700     3.1960 ha         1 8VC       0.110000
     54 H5           1.0420    -2.7200     3.6150 ha         1 8VC       0.109500
     55 H6           1.9960    -1.3720     1.7780 ha         1 8VC       0.114500
     56 H7           0.6750     2.1850    -1.5530 h1         1 8VC       0.083700
     57 H8           1.3210     3.2740     0.0470 h2         1 8VC       0.090200
     58 H9           1.7170     2.2570     1.4420 h2         1 8VC       0.090200
     59 H11          4.9850     2.6110    -0.6470 h1         1 8VC       0.085700
     60 H12         -4.2230    -2.7120     0.3750 hc         1 8VC       0.045200
     61 H13         -3.7760    -1.9910     1.9070 hc         1 8VC       0.045200
     62 H14         -5.0790    -3.1750     1.8350 hc         1 8VC       0.045200
     63 H15         -7.2580    -2.5990     1.1290 ha         1 8VC       0.112500
     64 H16         -8.2400     1.5420     0.4710 ha         1 8VC       0.112500
     65 H17         -3.4710     0.9070    -0.9280 h1         1 8VC       0.040700
     66 H18         -3.2440    -0.7820    -0.4900 h1         1 8VC       0.040700
     67 H19         -1.2300    -0.1900    -1.6260 hn         1 8VC       0.318500
     68 H20          0.9010    -1.5850    -1.7520 hc         1 8VC       0.066700
     69 H21          2.2330    -1.1460    -0.6900 hc         1 8VC       0.066700
     70 H23          6.7840     1.3780    -0.3050 hn         1 8VC       0.334500
     71 H24          6.5290    -1.2220     1.0400 h1         1 8VC       0.090700
     72 H25          8.5180    -0.2100     1.8640 h1         1 8VC       0.044700
     73 H26         10.2890    -1.5120     0.2460 hc         1 8VC       0.059700
     74 H27          9.0780    -2.4250     1.1340 hc         1 8VC       0.059700
     75 H28          9.8850    -3.3650    -1.9000 ha         1 8VC       0.112000
     76 H29          8.3700    -3.7360    -3.8210 ha         1 8VC       0.111000
     77 H30          6.1650    -2.6400    -3.9060 ha         1 8VC       0.114000
     78 H31          5.4370    -1.1450    -2.0660 ha         1 8VC       0.135000
     79 H32          9.8130     1.0140     0.4720 ho         1 8VC       0.447000
     80 H33          5.1870     1.4660     2.8870 hc         1 8VC       0.053033
     81 H34          4.3680     2.8600     3.5800 hc         1 8VC       0.053033
     82 H35          3.4380     1.6110     2.7510 hc         1 8VC       0.053033
     83 H36          6.0110     4.3290     0.5730 hc         1 8VC       0.053033
     84 H37          5.9330     4.3730     2.3380 hc         1 8VC       0.053033
     85 H38          6.7180     3.0220     1.5330 hc         1 8VC       0.053033
     86 H39          1.8830     0.4050    -3.2530 ho         1 8VC       0.473000
     87 H40         -5.2790     2.8840     1.4740 hc         1 8VC       0.045200
     88 H41         -5.0610     2.6630    -0.2510 hc         1 8VC       0.045200
     89 H42         -6.6270     3.1600     0.3770 hc         1 8VC       0.045200
     90 H43         -9.3370    -2.8300     1.6480 h1         1 8VC       0.035367
     91 H44        -10.7660    -2.3890     0.7290 h1         1 8VC       0.035367
     92 H45         -9.2920    -2.8580    -0.1190 h1         1 8VC       0.035367
     93 H46        -11.2730    -0.3080     0.6340 h1         1 8VC       0.059200
     94 H47        -10.1340     0.9930     0.7830 h1         1 8VC       0.059200
     95 H48         -9.2980     0.3710    -1.6030 h1         1 8VC       0.037200
     96 H49        -10.6190    -0.7880    -1.6510 h1         1 8VC       0.037200
     97 H51         -9.8640     2.7560    -2.0470 h1         1 8VC       0.030867
     98 H52        -11.5290     3.2550    -1.7180 h1         1 8VC       0.030867
     99 H53        -10.5110     2.6930    -0.4030 h1         1 8VC       0.030867
    100 H54        -12.0800     0.0120    -3.1910 h1         1 8VC       0.030867
    101 H55        -12.3890     1.7420    -3.3310 h1         1 8VC       0.030867
    102 H56        -10.7960     1.0970    -3.7500 h1         1 8VC       0.030867
    103 C29          4.9840     0.6990     0.3540 c          1 8VC       0.611100
    104 O30          4.2880    -0.2180     0.7520 o          1 8VC      -0.600100
    105 C01         -4.6260    -2.3310     1.3170 c3         1 8VC      -0.047300
@<TRIPOS>BOND
     1     1    20 1   
     2     1    21 2   
     3     1    22 1   
     4     2     8 1   
     5     2    22 1   
     6     2    23 1   
     7     2    50 1   
     8     3     4 ar  
     9     3    24 ar  
    10     3    51 1   
    11     4     5 ar  
    12     4    52 1   
    13     5     6 ar  
    14     5    53 1   
    15     6     7 ar  
    16     6    54 1   
    17     7    24 ar  
    18     7    55 1   
    19     8     9 1   
    20     8    41 1   
    21     8    56 1   
    22     9    25 2   
    23     9    26 1   
    24    10    26 1   
    25    10    27 1   
    26    10    57 1   
    27    10    58 1   
    28    11    12 1   
    29    11    27 1   
    30    11    39 1   
    31    11    40 1   
    32    12    26 1   
    33    12    59 1   
    34    12   103 1   
    35    13    14 ar  
    36    13    18 ar  
    37    13   105 1   
    38    14    15 ar  
    39    14    63 1   
    40    15    16 ar  
    41    15    43 1   
    42    16    17 ar  
    43    16    64 1   
    44    17    18 ar  
    45    17    42 1   
    46    18    19 1   
    47    19    20 1   
    48    20    65 1   
    49    20    66 1   
    50    22    67 1   
    51    23    24 1   
    52    23    68 1   
    53    23    69 1   
    54    28    29 1   
    55    28    70 1   
    56    28   103 1   
    57    29    30 1   
    58    29    37 1   
    59    29    71 1   
    60    30    31 1   
    61    30    38 1   
    62    30    72 1   
    63    31    32 1   
    64    31    73 1   
    65    31    74 1   
    66    32    33 ar  
    67    32    37 ar  
    68    33    34 ar  
    69    33    75 1   
    70    34    35 ar  
    71    34    76 1   
    72    35    36 ar  
    73    35    77 1   
    74    36    37 ar  
    75    36    78 1   
    76    38    79 1   
    77    39    80 1   
    78    39    81 1   
    79    39    82 1   
    80    40    83 1   
    81    40    84 1   
    82    40    85 1   
    83    41    86 1   
    84    42    87 1   
    85    42    88 1   
    86    42    89 1   
    87    43    44 1   
    88    43    45 1   
    89    44    90 1   
    90    44    91 1   
    91    44    92 1   
    92    45    46 1   
    93    45    93 1   
    94    45    94 1   
    95    46    47 1   
    96    46    95 1   
    97    46    96 1   
    98    47    48 1   
    99    47    49 1   
   100    48    97 1   
   101    48    98 1   
   102    48    99 1   
   103    49   100 1   
   104    49   101 1   
   105    49   102 1   
   106    60   105 1   
   107    61   105 1   
   108    62   105 1   
   109   103   104 2   
@<TRIPOS>SUBSTRUCTURE
     1 8VC         1 TEMP              0 ****  ****    0 ROOT
