@<TRIPOS>MOLECULE
8VD
   30    31     1     0     0
SMALL
No Charge or Current Charge


@<TRIPOS>ATOM
      1 C3          22.8300    33.5480     8.7680 ca         1 8VD       0.391900
      2 N1          20.0390    30.4040    12.1310 n7         1 8VD      -0.864400
      3 C8          21.0320    30.3730     9.8400 c6         1 8VD      -0.094900
      4 C5          21.4440    32.3330    11.3930 c6         1 8VD      -0.094900
      5 N           22.4460    32.2620     9.1230 nu         1 8VD      -0.920100
      6 C           21.6050    37.1740     8.5070 c3         1 8VD       0.263700
      7 C1          22.4760    35.9120     8.4530 ca         1 8VD       0.041300
      8 C2          21.9720    34.6560     8.8500 ca         1 8VD      -0.250000
      9 C4          21.2610    31.9000     9.9180 c6         1 8VD       0.238500
     10 C6          20.2430    31.8680    12.2480 c6         1 8VD       0.161300
     11 C7          19.8390    29.9580    10.7310 c6         1 8VD       0.161300
     12 C9          24.4830    34.8990     7.9510 ca         1 8VD       0.172900
     13 F           22.3130    38.3160     8.3310 f          1 8VD      -0.105333
     14 F1          20.6490    37.1550     7.5510 f          1 8VD      -0.105333
     15 F2          20.9700    37.2910     9.6960 f          1 8VD      -0.105333
     16 N2          24.0860    33.6620     8.3130 nb         1 8VD      -0.259000
     17 N3          23.7450    36.0280     7.9980 nb         1 8VD      -0.189000
     18 H11         20.8380    30.0720     8.8020 hc         1 8VD       0.058450
     19 H10         21.9330    29.8350    10.1650 hc         1 8VD       0.058450
     20 H3          22.3700    31.9050    11.8000 hc         1 8VD       0.058450
     21 H4          21.5420    33.4240    11.4630 hc         1 8VD       0.058450
     22 H1          23.1750    31.5570     9.0010 hn         1 8VD       0.509000
     23 H           20.9510    34.5580     9.2040 ha         1 8VD       0.147000
     24 H2          20.3650    32.3920     9.5090 h1         1 8VD       0.056700
     25 H6          20.4160    32.1320    13.3020 h1         1 8VD       0.035200
     26 H5          19.3330    32.3930    11.9180 h1         1 8VD       0.035200
     27 H8          18.9120    30.3990    10.3340 h1         1 8VD       0.035200
     28 H9          19.7230    28.8640    10.7070 h1         1 8VD       0.035200
     29 H12         25.5030    34.9970     7.5830 h5         1 8VD       0.053100
     30 H7          19.2160    30.1370    12.6870 hn         1 8VD       0.418000
@<TRIPOS>BOND
     1     1     5 1   
     2     1     8 ar  
     3     1    16 ar  
     4     2    10 1   
     5     2    11 1   
     6     2    30 1   
     7     3     9 1   
     8     3    11 1   
     9     3    18 1   
    10     3    19 1   
    11     4     9 1   
    12     4    10 1   
    13     4    20 1   
    14     4    21 1   
    15     5     9 1   
    16     5    22 1   
    17     6     7 1   
    18     6    13 1   
    19     6    14 1   
    20     6    15 1   
    21     7     8 ar  
    22     7    17 ar  
    23     8    23 1   
    24     9    24 1   
    25    10    25 1   
    26    10    26 1   
    27    11    27 1   
    28    11    28 1   
    29    12    16 ar  
    30    12    17 ar  
    31    12    29 1   
@<TRIPOS>SUBSTRUCTURE
     1 8VD         1 TEMP              0 ****  ****    0 ROOT
