@<TRIPOS>MOLECULE
8VD
   30    31     1     0     0
SMALL
bcc


@<TRIPOS>ATOM
      1 C3          22.8340    33.5070     8.7910 ca         1 8VD       0.720200
      2 N1          20.0420    30.4570    12.0870 n7         1 8VD      -0.809200
      3 C8          21.0890    30.4320     9.8840 c6         1 8VD      -0.094900
      4 C5          21.4530    32.3370    11.4630 c6         1 8VD      -0.094900
      5 N           22.5320    32.2840     9.2320 nu         1 8VD      -0.864900
      6 C           21.6050    37.0670     8.5560 c3         1 8VD       0.627600
      7 C1          22.4190    35.8040     8.4460 ca         1 8VD       0.369600
      8 C2          21.9710    34.6180     8.9570 ca         1 8VD      -0.398600
      9 C4          21.3510    31.9300     9.9930 c6         1 8VD       0.238500
     10 C6          20.2060    31.8930    12.2140 c6         1 8VD       0.161300
     11 C7          19.8620    30.0560    10.7030 c6         1 8VD       0.161300
     12 C9          24.3080    34.8610     7.7120 ca         1 8VD       0.698900
     13 F           22.2930    38.0340     9.1680 f          1 8VD      -0.226633
     14 F1          21.2730    37.5230     7.3440 f          1 8VD      -0.226633
     15 F2          20.4750    36.8890     9.2410 f          1 8VD      -0.226633
     16 N2          24.0070    33.6590     8.1620 nb         1 8VD      -0.785000
     17 N3          23.5830    35.9620     7.8150 nb         1 8VD      -0.715000
     18 H11         20.9390    30.1500     8.8400 hc         1 8VD       0.058450
     19 H10         21.9590    29.8800    10.2550 hc         1 8VD       0.058450
     20 H3          22.3370    31.8670    11.9050 hc         1 8VD       0.058450
     21 H4          21.5770    33.4180    11.5570 hc         1 8VD       0.058450
     22 H1          23.2500    31.5840     9.1130 hn         1 8VD       0.453800
     23 H           21.0210    34.5350     9.4610 ha         1 8VD       0.165000
     24 H2          20.4920    32.4440     9.5470 h1         1 8VD       0.056700
     25 H6          20.3000    32.1490    13.2710 h1         1 8VD       0.035200
     26 H5          19.3400    32.4550    11.8260 h1         1 8VD       0.035200
     27 H8          18.9760    30.5190    10.2380 h1         1 8VD       0.035200
     28 H9          19.7130    28.9760    10.6630 h1         1 8VD       0.035200
     29 H12         25.2620    34.9560     7.2030 h5         1 8VD       0.053100
     30 H7          19.2440    30.1570    12.6310 hn         1 8VD       0.362800
@<TRIPOS>BOND
     1     1     5 1   
     2     1     8 ar  
     3     1    16 ar  
     4     2    10 1   
     5     2    11 1   
     6     2    30 1   
     7     3     9 1   
     8     3    11 1   
     9     3    18 1   
    10     3    19 1   
    11     4     9 1   
    12     4    10 1   
    13     4    20 1   
    14     4    21 1   
    15     5     9 1   
    16     5    22 1   
    17     6     7 1   
    18     6    13 1   
    19     6    14 1   
    20     6    15 1   
    21     7     8 ar  
    22     7    17 ar  
    23     8    23 1   
    24     9    24 1   
    25    10    25 1   
    26    10    26 1   
    27    11    27 1   
    28    11    28 1   
    29    12    16 ar  
    30    12    17 ar  
    31    12    29 1   
@<TRIPOS>SUBSTRUCTURE
     1 8VD         1 TEMP              0 ****  ****    0 ROOT
