@<TRIPOS>MOLECULE
8VE
   24    25     1     0     0
SMALL
No Charge or Current Charge


@<TRIPOS>ATOM
      1 N1          -6.0050    -1.6120   -10.9300 nh         1 8VE      -0.497700
      2 N3          -6.8580    -4.3830    -9.6830 n7         1 8VE      -0.839400
      3 C4          -5.3860    -2.6530    -8.8500 c5         1 8VE      -0.111000
      4 C5          -5.8840    -4.1170    -8.5640 c5         1 8VE       0.026500
      5 C6          -6.6410    -0.7310   -11.9310 c3         1 8VE       0.223100
      6 C8          -6.4950    -4.2380    -7.0960 c          1 8VE       0.691000
      7 C1          -4.3530    -2.7310    -9.9810 ce         1 8VE       0.310300
      8 N2          -4.7400    -2.0680   -11.0310 n2         1 8VE      -0.453400
      9 C2          -7.6300    -3.1180    -9.7860 c5         1 8VE       0.126800
     10 C3          -6.5860    -1.9560    -9.5920 c5         1 8VE       0.152500
     11 O1          -2.6680    -3.5340    -8.4760 o          1 8VE      -0.721500
     12 O2          -6.6620    -5.3570    -6.6290 o          1 8VE      -0.749000
     13 O3          -2.0190    -3.0030   -10.4450 o          1 8VE      -0.721500
     14 O4          -6.8000    -3.2380    -6.4570 o          1 8VE      -0.749000
     15 H6          -7.4800    -5.1670    -9.4420 hn         1 8VE       0.401000
     16 H5          -5.0060    -2.1080    -7.9800 hc         1 8VE       0.103700
     17 H3          -5.0520    -4.8350    -8.5910 h1         1 8VE       0.088700
     18 H8          -6.1060     0.2260   -11.9910 h1         1 8VE       0.006033
     19 H7          -6.6280    -1.2060   -12.9210 h1         1 8VE       0.006033
     20 H9          -7.6850    -0.5310   -11.6540 h1         1 8VE       0.006033
     21 H2          -8.1770    -3.0510   -10.7370 h1         1 8VE       0.014700
     22 H1          -8.3760    -3.0800    -8.9800 h1         1 8VE       0.014700
     23 H4          -6.9970    -1.0840    -9.0640 h1         1 8VE       0.039700
     24 C7          -2.9090    -3.1170    -9.6050 c          1 8VE       0.631700
@<TRIPOS>BOND
     1     1     5 1   
     2     1     8 1   
     3     1    10 1   
     4     2     4 1   
     5     2     9 1   
     6     2    15 1   
     7     3     4 1   
     8     3     7 1   
     9     3    10 1   
    10     3    16 1   
    11     4     6 1   
    12     4    17 1   
    13     5    18 1   
    14     5    19 1   
    15     5    20 1   
    16     6    12 1   
    17     6    14 1   
    18     7     8 2   
    19     7    24 1   
    20     9    10 1   
    21     9    21 1   
    22     9    22 1   
    23    10    23 1   
    24    11    24 1   
    25    13    24 1   
@<TRIPOS>SUBSTRUCTURE
     1 8VE         1 TEMP              0 ****  ****    0 ROOT
