@<TRIPOS>MOLECULE
8VE
   24    25     1     0     0
SMALL
abcg2


@<TRIPOS>ATOM
      1 N1          -5.9230    -1.2910   -10.6990 nh         1 8VE      -0.497700
      2 N3          -6.8430    -4.2020    -9.7730 n7         1 8VE      -0.839400
      3 C4          -5.4320    -2.5910    -8.7820 c5         1 8VE      -0.111000
      4 C5          -5.8980    -4.0560    -8.6580 c5         1 8VE       0.026500
      5 C6          -6.6430    -1.1000   -11.9390 c3         1 8VE       0.223100
      6 C8          -6.4910    -4.4080    -7.2620 c          1 8VE       0.691000
      7 C1          -4.2970    -2.4120    -9.7660 ce         1 8VE       0.310300
      8 N2          -4.6430    -1.7600   -10.8180 n2         1 8VE      -0.453400
      9 C2          -7.6300    -2.9610    -9.7640 c5         1 8VE       0.126800
     10 C3          -6.5930    -1.8610    -9.5060 c5         1 8VE       0.152500
     11 O1          -2.6560    -3.3540    -8.3830 o          1 8VE      -0.721500
     12 O2          -7.5660    -5.0610    -7.2480 o          1 8VE      -0.749000
     13 O3          -2.0680    -2.8440   -10.4890 o          1 8VE      -0.721500
     14 O4          -5.8210    -4.0570    -6.2600 o          1 8VE      -0.749000
     15 H6          -7.4500    -4.9880    -9.5650 hn         1 8VE       0.401000
     16 H5          -5.1870    -2.1870    -7.8030 hc         1 8VE       0.103700
     17 H3          -5.0490    -4.7310    -8.7980 h1         1 8VE       0.088700
     18 H8          -6.0210    -0.5210   -12.6210 h1         1 8VE       0.006033
     19 H7          -6.9160    -2.0430   -12.4310 h1         1 8VE       0.006033
     20 H9          -7.5560    -0.5390   -11.7380 h1         1 8VE       0.006033
     21 H2          -8.1780    -2.8300   -10.6980 h1         1 8VE       0.014700
     22 H1          -8.3580    -2.9390    -8.9420 h1         1 8VE       0.014700
     23 H4          -7.0340    -1.0460    -8.9330 h1         1 8VE       0.039700
     24 C7          -2.8890    -2.9100    -9.5400 c          1 8VE       0.631700
@<TRIPOS>BOND
     1     1     5 1   
     2     1     8 1   
     3     1    10 1   
     4     2     4 1   
     5     2     9 1   
     6     2    15 1   
     7     3     4 1   
     8     3     7 1   
     9     3    10 1   
    10     3    16 1   
    11     4     6 1   
    12     4    17 1   
    13     5    18 1   
    14     5    19 1   
    15     5    20 1   
    16     6    12 1   
    17     6    14 1   
    18     7     8 2   
    19     7    24 1   
    20     9    10 1   
    21     9    21 1   
    22     9    22 1   
    23    10    23 1   
    24    11    24 1   
    25    13    24 1   
@<TRIPOS>SUBSTRUCTURE
     1 8VE         1 TEMP              0 ****  ****    0 ROOT
