@<TRIPOS>MOLECULE
8VF
  102   106     1     0     0
SMALL
bcc


@<TRIPOS>ATOM
      1 C1          -5.3330     2.6160    -0.9080 ca         1 8VF      -0.079000
      2 C2          -5.4030     3.3460    -2.0900 ca         1 8VF      -0.132000
      3 C3          -6.5790     3.3730    -2.8340 ca         1 8VF      -0.118000
      4 C4          -7.7040     2.6760    -2.4070 ca         1 8VF      -0.118000
      5 C5          -7.6340     1.9470    -1.2290 ca         1 8VF      -0.081300
      6 C6          -6.4560     1.9220    -0.4870 ca         1 8VF      -0.120300
      7 C7          -8.6930     1.1160    -0.5660 c5         1 8VF      -0.073100
      8 C8          -8.1580     0.9990     0.8720 c5         1 8VF       0.125100
      9 C9          -6.6240     1.0490     0.7330 c5         1 8VF       0.175000
     10 O10         -8.5520    -0.1470     1.5750 oh         1 8VF      -0.593800
     11 N11         -6.0850    -0.2800     0.5220 ns         1 8VF      -0.546900
     12 C12         -4.7850    -0.5600     0.6670 c          1 8VF       0.682100
     13 C13         -2.2500    -3.1200     0.6830 c5         1 8VF       0.191100
     14 N14         -3.0990    -2.1860    -0.0360 n          1 8VF      -0.457800
     15 C15         -4.4460    -2.0390     0.4820 c5         1 8VF       0.028700
     16 C16         -4.5330    -2.8130     1.8210 c5         1 8VF       0.057100
     17 S17         -3.4080    -4.2290     1.5120 ss         1 8VF      -0.331200
     18 O18         -3.9430     0.2630     0.9820 o          1 8VF      -0.610100
     19 C19         -4.0430    -2.0260     3.0330 c3         1 8VF      -0.086100
     20 C20         -5.9410    -3.3360     2.0660 c3         1 8VF      -0.086100
     21 C22         -1.3490    -1.6240    -1.6800 c3         1 8VF       0.070100
     22 O23         -3.6450    -1.0340    -1.8870 o          1 8VF      -0.603100
     23 C24         -0.5350    -0.6650    -0.7890 c3         1 8VF       0.088700
     24 N25          0.8740    -0.7990    -1.0740 ns         1 8VF      -0.573900
     25 O26         -1.2700    -1.2820    -3.0290 oh         1 8VF      -0.588800
     26 C27         -0.9700     0.8010    -0.9360 c3         1 8VF      -0.057100
     27 C28         -0.1960     1.6760     0.0090 ca         1 8VF      -0.081300
     28 C29         -0.5810     1.7740     1.3440 ca         1 8VF      -0.122000
     29 C30          0.1600     2.5270     2.2440 ca         1 8VF      -0.129000
     30 C31          1.3030     3.1930     1.8200 ca         1 8VF      -0.128000
     31 C32          1.6940     3.1060     0.4910 ca         1 8VF      -0.129000
     32 C33          0.9470     2.3540    -0.4070 ca         1 8VF      -0.122000
     33 C34          1.7980    -1.0550    -0.1250 c          1 8VF       0.669100
     34 C35          3.2190    -0.8000    -0.5940 c3         1 8VF       0.053400
     35 O36          1.5360    -1.4290     1.0020 o          1 8VF      -0.573100
     36 O37          4.1130    -1.2970     0.3650 os         1 8VF      -0.301900
     37 C38          5.3860    -0.7860     0.2720 ca         1 8VF       0.026100
     38 C39          8.0040     0.2410     0.1310 ca         1 8VF       0.215600
     39 C40          7.0120     0.8580     0.9130 ca         1 8VF      -0.213500
     40 C41          5.7170     0.3610     0.9890 ca         1 8VF      -0.033800
     41 C42          6.3410    -1.4360    -0.5050 ca         1 8VF      -0.033800
     42 C43          7.6300    -0.9210    -0.5660 ca         1 8VF      -0.213500
     43 C44          4.7050     1.0320     1.8740 c3         1 8VF      -0.046800
     44 C45          5.9900    -2.6820    -1.2650 c3         1 8VF      -0.046800
     45 N46          9.2790     0.7460     0.0520 nh         1 8VF      -0.704000
     46 C47          9.6550     1.9780     0.7130 c3         1 8VF       0.233800
     47 C48         10.0880     1.7870     2.1620 c3         1 8VF      -0.119100
     48 C49         10.3360     0.0260    -0.6210 c3         1 8VF       0.228800
     49 C50         10.4160     0.3290    -2.1140 c3         1 8VF       0.122800
     50 N51         11.5020    -0.4270    -2.7160 n8         1 8VF      -0.887800
     51 H1          -4.4200     2.5940    -0.3290 ha         1 8VF       0.153000
     52 H2          -4.5390     3.9010    -2.4320 ha         1 8VF       0.133000
     53 H3          -6.6200     3.9490    -3.7500 ha         1 8VF       0.130000
     54 H4          -8.6180     2.7070    -2.9870 ha         1 8VF       0.131000
     55 H5          -9.6860     1.5670    -0.6030 hc         1 8VF       0.059200
     56 H6          -8.7700     0.1300    -1.0370 hc         1 8VF       0.059200
     57 H7          -8.4490     1.9130     1.4060 h1         1 8VF       0.047700
     58 H8          -6.1550     1.4740     1.6220 h1         1 8VF       0.087700
     59 H9          -9.5120    -0.1460     1.6430 ho         1 8VF       0.412000
     60 H10         -6.7120    -1.0120     0.2270 hn         1 8VF       0.329500
     61 H11         -1.6270    -3.7060     0.0110 h2         1 8VF       0.087700
     62 H12         -1.6070    -2.6170     1.4080 h2         1 8VF       0.087700
     63 H13         -5.1540    -2.4940    -0.2200 h1         1 8VF       0.080700
     64 H14         -4.7220    -1.2040     3.2650 hc         1 8VF       0.053700
     65 H15         -4.0150    -2.6820     3.9020 hc         1 8VF       0.053700
     66 H16         -3.0470    -1.6060     2.8940 hc         1 8VF       0.053700
     67 H17         -6.3010    -3.9300     1.2260 hc         1 8VF       0.053700
     68 H18         -5.9700    -3.9560     2.9620 hc         1 8VF       0.053700
     69 H19         -6.6330    -2.5060     2.2220 hc         1 8VF       0.053700
     70 H20         -0.9200    -2.6250    -1.5660 h1         1 8VF       0.087700
     71 H21         -0.6690    -0.9640     0.2520 h1         1 8VF       0.093700
     72 H22          1.1910    -0.4660    -1.9720 hn         1 8VF       0.315500
     73 H23         -2.0430    -0.7380    -3.2360 ho         1 8VF       0.433000
     74 H24         -0.8130     1.1290    -1.9670 hc         1 8VF       0.066700
     75 H25         -2.0370     0.8870    -0.7260 hc         1 8VF       0.066700
     76 H26         -1.4740     1.2560     1.6750 ha         1 8VF       0.135000
     77 H27         -0.1550     2.5950     3.2770 ha         1 8VF       0.129000
     78 H28          1.8840     3.7790     2.5210 ha         1 8VF       0.128000
     79 H29          2.5810     3.6260     0.1500 ha         1 8VF       0.129000
     80 H30          1.2540     2.2990    -1.4450 ha         1 8VF       0.135000
     81 H31          3.3790    -1.2600    -1.5780 h1         1 8VF       0.042200
     82 H32          3.3340     0.2830    -0.7340 h1         1 8VF       0.042200
     83 H33          7.2380     1.7430     1.4920 ha         1 8VF       0.133000
     84 H34          8.3440    -1.4420    -1.1900 ha         1 8VF       0.133000
     85 H35          4.4080     0.3840     2.7000 hc         1 8VF       0.045367
     86 H36          5.1150     1.9460     2.3010 hc         1 8VF       0.045367
     87 H37          3.7900     1.3030     1.3460 hc         1 8VF       0.045367
     88 H38          5.2720    -2.4820    -2.0630 hc         1 8VF       0.045367
     89 H39          6.8730    -3.1200    -1.7280 hc         1 8VF       0.045367
     90 H40          5.5420    -3.4360    -0.6170 hc         1 8VF       0.045367
     91 H41         10.4750     2.4210     0.1440 h1         1 8VF       0.043700
     92 H42          8.8390     2.6990     0.6510 h1         1 8VF       0.043700
     93 H43         10.9410     1.1090     2.2280 hc         1 8VF       0.041700
     94 H44         10.3870     2.7400     2.6010 hc         1 8VF       0.041700
     95 H45          9.2840     1.3750     2.7720 hc         1 8VF       0.041700
     96 H46         11.2840     0.3010    -0.1500 h1         1 8VF       0.053700
     97 H47         10.2340    -1.0500    -0.4660 h1         1 8VF       0.053700
     98 H48          9.4810     0.0320    -2.5950 h1         1 8VF       0.035700
     99 H49         10.5010     1.4170    -2.2470 h1         1 8VF       0.035700
    100 H50         11.4960    -0.2890    -3.7180 hn         1 8VF       0.338800
    101 H51         12.3890    -0.0580    -2.3960 hn         1 8VF       0.338800
    102 C21         -2.8020    -1.6150    -1.2180 c          1 8VF       0.644100
@<TRIPOS>BOND
     1     1     2 ar  
     2     1     6 ar  
     3     1    51 1   
     4     2     3 ar  
     5     2    52 1   
     6     3     4 ar  
     7     3    53 1   
     8     4     5 ar  
     9     4    54 1   
    10     5     6 ar  
    11     5     7 1   
    12     6     9 1   
    13     7     8 1   
    14     7    55 1   
    15     7    56 1   
    16     8     9 1   
    17     8    10 1   
    18     8    57 1   
    19     9    11 1   
    20     9    58 1   
    21    10    59 1   
    22    11    12 1   
    23    11    60 1   
    24    12    15 1   
    25    12    18 2   
    26    13    14 1   
    27    13    17 1   
    28    13    61 1   
    29    13    62 1   
    30    14    15 1   
    31    14   102 1   
    32    15    16 1   
    33    15    63 1   
    34    16    17 1   
    35    16    19 1   
    36    16    20 1   
    37    19    64 1   
    38    19    65 1   
    39    19    66 1   
    40    20    67 1   
    41    20    68 1   
    42    20    69 1   
    43    21    23 1   
    44    21    25 1   
    45    21    70 1   
    46    21   102 1   
    47    22   102 2   
    48    23    24 1   
    49    23    26 1   
    50    23    71 1   
    51    24    33 1   
    52    24    72 1   
    53    25    73 1   
    54    26    27 1   
    55    26    74 1   
    56    26    75 1   
    57    27    28 ar  
    58    27    32 ar  
    59    28    29 ar  
    60    28    76 1   
    61    29    30 ar  
    62    29    77 1   
    63    30    31 ar  
    64    30    78 1   
    65    31    32 ar  
    66    31    79 1   
    67    32    80 1   
    68    33    34 1   
    69    33    35 2   
    70    34    36 1   
    71    34    81 1   
    72    34    82 1   
    73    36    37 1   
    74    37    40 ar  
    75    37    41 ar  
    76    38    39 ar  
    77    38    42 ar  
    78    38    45 1   
    79    39    40 ar  
    80    39    83 1   
    81    40    43 1   
    82    41    42 ar  
    83    41    44 1   
    84    42    84 1   
    85    43    85 1   
    86    43    86 1   
    87    43    87 1   
    88    44    88 1   
    89    44    89 1   
    90    44    90 1   
    91    45    46 1   
    92    45    48 1   
    93    46    47 1   
    94    46    91 1   
    95    46    92 1   
    96    47    93 1   
    97    47    94 1   
    98    47    95 1   
    99    48    49 1   
   100    48    96 1   
   101    48    97 1   
   102    49    50 1   
   103    49    98 1   
   104    49    99 1   
   105    50   100 1   
   106    50   101 1   
@<TRIPOS>SUBSTRUCTURE
     1 8VF         1 TEMP              0 ****  ****    0 ROOT
