@<TRIPOS>MOLECULE
8VF
  102   106     1     0     0
SMALL
No Charge or Current Charge


@<TRIPOS>ATOM
      1 C1          -6.2230     2.7860    -0.6380 ca         1 8VF      -0.061000
      2 C2          -6.4660     3.6950    -1.6870 ca         1 8VF      -0.114000
      3 C3          -7.6800     3.6430    -2.4030 ca         1 8VF      -0.100000
      4 C4          -8.6550     2.6810    -2.0710 ca         1 8VF      -0.100000
      5 C5          -8.3970     1.7860    -1.0210 ca         1 8VF      -0.081300
      6 C6          -7.2080     1.8350    -0.3210 ca         1 8VF      -0.120300
      7 C7          -9.3050     0.6890    -0.5330 c5         1 8VF      -0.073100
      8 C8          -8.6730     0.3720     0.8780 c5         1 8VF       0.148300
      9 C9          -7.1320     0.7830     0.7580 c5         1 8VF       0.175000
     10 O10         -8.9060    -0.9940     1.2580 oh         1 8VF      -0.656000
     11 N11         -6.4390    -0.4420     0.3480 ns         1 8VF      -0.479900
     12 C12         -5.0690    -0.5030     0.5000 c          1 8VF       0.615100
     13 C13         -2.3210    -3.0720    -0.0730 c5         1 8VF       0.239000
     14 N14         -3.1460    -1.9030    -0.4680 n          1 8VF      -0.390800
     15 C15         -4.5570    -1.9100     0.0530 c5         1 8VF       0.028700
     16 C16         -4.5440    -2.8840     1.2880 c5         1 8VF       0.105000
     17 S17         -3.5010    -4.2750     0.6830 ss         1 8VF      -0.427000
     18 O18         -4.3880     0.4300     0.9100 o          1 8VF      -0.610100
     19 C19         -3.9090    -2.3110     2.5870 c3         1 8VF      -0.086100
     20 C20         -5.9410    -3.4600     1.6280 c3         1 8VF      -0.086100
     21 C22         -1.2920    -0.9180    -1.9460 c3         1 8VF       0.093300
     22 O23         -3.6660    -0.5230    -2.2270 o          1 8VF      -0.603100
     23 C24         -0.5100    -0.2220    -0.7930 c3         1 8VF       0.088700
     24 N25          0.9370    -0.2650    -1.0420 ns         1 8VF      -0.506900
     25 O26         -1.1250    -0.1820    -3.1890 oh         1 8VF      -0.651000
     26 C27         -0.9610     1.2350    -0.5050 c3         1 8VF      -0.057100
     27 C28         -0.2250     1.8440     0.6840 ca         1 8VF      -0.081300
     28 C29         -0.6440     1.5540     1.9970 ca         1 8VF      -0.104000
     29 C30          0.0470     2.0930     3.0970 ca         1 8VF      -0.111000
     30 C31          1.1610     2.9240     2.8900 ca         1 8VF      -0.110000
     31 C32          1.5820     3.2190     1.5820 ca         1 8VF      -0.111000
     32 C33          0.8920     2.6810     0.4830 ca         1 8VF      -0.104000
     33 C34          1.8820    -0.7290    -0.1480 c          1 8VF       0.602100
     34 C35          3.3440    -0.4670    -0.5770 c3         1 8VF       0.076600
     35 O36          1.5670    -1.2860     0.8970 o          1 8VF      -0.573100
     36 O37          4.2950    -0.8500     0.4410 os         1 8VF      -0.325100
     37 C38          5.6170    -0.5030     0.2870 ca         1 8VF       0.026100
     38 C39          8.3390     0.1970    -0.0420 ca         1 8VF       0.354000
     39 C40          7.4100     1.1330     0.4530 ca         1 8VF      -0.195500
     40 C41          6.0540     0.7970     0.6270 ca         1 8VF      -0.033800
     41 C42          6.5340    -1.4580    -0.1990 ca         1 8VF      -0.033800
     42 C43          7.8850    -1.0980    -0.3610 ca         1 8VF      -0.195500
     43 C44          5.0920     1.8410     1.1870 c3         1 8VF      -0.046800
     44 C45          6.0760    -2.8660    -0.5580 c3         1 8VF      -0.046800
     45 N46          9.7040     0.5520    -0.2120 nh         1 8VF      -0.842400
     46 C47         10.1040     1.9270    -0.5950 c3         1 8VF       0.233800
     47 C48         10.6590     2.7620     0.5750 c3         1 8VF      -0.119100
     48 C49         10.7940    -0.4510    -0.0520 c3         1 8VF       0.228800
     49 C50         11.3680    -1.0140    -1.3890 c3         1 8VF       0.122800
     50 N51         12.4420    -2.0280    -1.2040 n8         1 8VF      -0.998200
     51 H1          -5.2870     2.8210    -0.0850 ha         1 8VF       0.135000
     52 H2          -5.7140     4.4370    -1.9450 ha         1 8VF       0.115000
     53 H3          -7.8640     4.3450    -3.2130 ha         1 8VF       0.112000
     54 H4          -9.5920     2.6340    -2.6210 ha         1 8VF       0.113000
     55 H5         -10.3520     1.0040    -0.4540 hc         1 8VF       0.059200
     56 H6          -9.2690    -0.1780    -1.2020 hc         1 8VF       0.059200
     57 H7          -9.1370     1.0390     1.6190 h1         1 8VF       0.047700
     58 H8          -6.7550     1.1930     1.7060 h1         1 8VF       0.087700
     59 H9          -9.8760    -1.0970     1.3750 ho         1 8VF       0.451000
     60 H10         -6.9330    -1.2730     0.0490 hn         1 8VF       0.329500
     61 H11         -1.8550    -3.5060    -0.9670 h2         1 8VF       0.087700
     62 H12         -1.5890    -2.7310     0.6690 h2         1 8VF       0.087700
     63 H13         -5.2250    -2.2900    -0.7310 h1         1 8VF       0.080700
     64 H14         -4.5460    -1.5430     3.0410 hc         1 8VF       0.053700
     65 H15         -3.7670    -3.0990     3.3360 hc         1 8VF       0.053700
     66 H16         -2.9300    -1.8550     2.4010 hc         1 8VF       0.053700
     67 H17         -6.4190    -3.8940     0.7410 hc         1 8VF       0.053700
     68 H18         -5.8690    -4.2530     2.3830 hc         1 8VF       0.053700
     69 H19         -6.6100    -2.6900     2.0260 hc         1 8VF       0.053700
     70 H20         -0.8730    -1.9250    -2.0680 h1         1 8VF       0.087700
     71 H21         -0.7110    -0.7910     0.1240 h1         1 8VF       0.093700
     72 H22          1.2810     0.1570    -1.8970 hn         1 8VF       0.315500
     73 H23         -2.0310     0.1100    -3.4520 ho         1 8VF       0.472000
     74 H24         -0.8020     1.8500    -1.3990 hc         1 8VF       0.066700
     75 H25         -2.0400     1.2550    -0.3140 hc         1 8VF       0.066700
     76 H26         -1.5030     0.9080     2.1650 ha         1 8VF       0.117000
     77 H27         -0.2800     1.8640     4.1080 ha         1 8VF       0.111000
     78 H28          1.6960     3.3390     3.7410 ha         1 8VF       0.110000
     79 H29          2.4440     3.8620     1.4210 ha         1 8VF       0.111000
     80 H30          1.2290     2.9090    -0.5260 ha         1 8VF       0.117000
     81 H31          3.5310    -1.0190    -1.5060 h1         1 8VF       0.042200
     82 H32          3.4300     0.6030    -0.8020 h1         1 8VF       0.042200
     83 H33          7.7400     2.1310     0.7210 ha         1 8VF       0.115000
     84 H34          8.5810    -1.8330    -0.7520 ha         1 8VF       0.115000
     85 H35          4.3370     1.3880     1.8400 hc         1 8VF       0.045367
     86 H36          5.6200     2.5960     1.7800 hc         1 8VF       0.045367
     87 H37          4.5670     2.3640     0.3780 hc         1 8VF       0.045367
     88 H38          5.4110    -2.8510    -1.4300 hc         1 8VF       0.045367
     89 H39          6.9210    -3.5220    -0.7980 hc         1 8VF       0.045367
     90 H40          5.5290    -3.3270     0.2730 hc         1 8VF       0.045367
     91 H41         10.8680     1.8840    -1.3840 h1         1 8VF       0.043700
     92 H42          9.2480     2.4590    -1.0330 h1         1 8VF       0.043700
     93 H43         11.5730     2.3120     0.9770 hc         1 8VF       0.041700
     94 H44         10.9000     3.7750     0.2340 hc         1 8VF       0.041700
     95 H45          9.9250     2.8380     1.3850 hc         1 8VF       0.041700
     96 H46         11.6210    -0.0030     0.5170 h1         1 8VF       0.053700
     97 H47         10.4360    -1.2930     0.5580 h1         1 8VF       0.053700
     98 H48         10.5540    -1.4760    -1.9640 h1         1 8VF       0.035700
     99 H49         11.7740    -0.1860    -1.9860 h1         1 8VF       0.035700
    100 H50         12.7900    -2.3190    -2.1260 hn         1 8VF       0.394000
    101 H51         13.2590    -1.5800    -0.7710 hn         1 8VF       0.394000
    102 C21         -2.8000    -1.1090    -1.5840 c          1 8VF       0.577100
@<TRIPOS>BOND
     1     1     2 ar  
     2     1     6 ar  
     3     1    51 1   
     4     2     3 ar  
     5     2    52 1   
     6     3     4 ar  
     7     3    53 1   
     8     4     5 ar  
     9     4    54 1   
    10     5     6 ar  
    11     5     7 1   
    12     6     9 1   
    13     7     8 1   
    14     7    55 1   
    15     7    56 1   
    16     8     9 1   
    17     8    10 1   
    18     8    57 1   
    19     9    11 1   
    20     9    58 1   
    21    10    59 1   
    22    11    12 1   
    23    11    60 1   
    24    12    15 1   
    25    12    18 2   
    26    13    14 1   
    27    13    17 1   
    28    13    61 1   
    29    13    62 1   
    30    14    15 1   
    31    14   102 1   
    32    15    16 1   
    33    15    63 1   
    34    16    17 1   
    35    16    19 1   
    36    16    20 1   
    37    19    64 1   
    38    19    65 1   
    39    19    66 1   
    40    20    67 1   
    41    20    68 1   
    42    20    69 1   
    43    21    23 1   
    44    21    25 1   
    45    21    70 1   
    46    21   102 1   
    47    22   102 2   
    48    23    24 1   
    49    23    26 1   
    50    23    71 1   
    51    24    33 1   
    52    24    72 1   
    53    25    73 1   
    54    26    27 1   
    55    26    74 1   
    56    26    75 1   
    57    27    28 ar  
    58    27    32 ar  
    59    28    29 ar  
    60    28    76 1   
    61    29    30 ar  
    62    29    77 1   
    63    30    31 ar  
    64    30    78 1   
    65    31    32 ar  
    66    31    79 1   
    67    32    80 1   
    68    33    34 1   
    69    33    35 2   
    70    34    36 1   
    71    34    81 1   
    72    34    82 1   
    73    36    37 1   
    74    37    40 ar  
    75    37    41 ar  
    76    38    39 ar  
    77    38    42 ar  
    78    38    45 1   
    79    39    40 ar  
    80    39    83 1   
    81    40    43 1   
    82    41    42 ar  
    83    41    44 1   
    84    42    84 1   
    85    43    85 1   
    86    43    86 1   
    87    43    87 1   
    88    44    88 1   
    89    44    89 1   
    90    44    90 1   
    91    45    46 1   
    92    45    48 1   
    93    46    47 1   
    94    46    91 1   
    95    46    92 1   
    96    47    93 1   
    97    47    94 1   
    98    47    95 1   
    99    48    49 1   
   100    48    96 1   
   101    48    97 1   
   102    49    50 1   
   103    49    98 1   
   104    49    99 1   
   105    50   100 1   
   106    50   101 1   
@<TRIPOS>SUBSTRUCTURE
     1 8VF         1 TEMP              0 ****  ****    0 ROOT
