@<TRIPOS>MOLECULE
8VH
   18    18     1     0     0
SMALL
No Charge or Current Charge


@<TRIPOS>ATOM
      1 C01          1.2190    -0.2970     0.0070 ca         1 8VH      -0.072800
      2 C02         -0.0040    -0.9940     0.0130 ca         1 8VH      -0.111000
      3 C03         -1.2270    -0.2950    -0.0100 ca         1 8VH      -0.072800
      4 C04         -1.2200     1.1120    -0.0370 ca         1 8VH      -0.114000
      5 C05         -0.0020     1.8130    -0.0450 ca         1 8VH      -0.106000
      6 C06          1.2140     1.1100    -0.0250 ca         1 8VH      -0.114000
      7 C07         -2.5440    -1.0560     0.0010 c3         1 8VH      -0.046800
      8 C08          2.5360    -1.0590     0.0280 c3         1 8VH      -0.046800
      9 H1          -0.0050    -2.0810     0.0360 ha         1 8VH       0.108000
     10 H2          -2.1580     1.6630    -0.0510 ha         1 8VH       0.110000
     11 H3          -0.0020     2.9000    -0.0680 ha         1 8VH       0.110000
     12 H4           2.1530     1.6610    -0.0330 ha         1 8VH       0.110000
     13 H5          -2.8740    -1.2500     1.0280 hc         1 8VH       0.041367
     14 H6          -3.3370    -0.4920    -0.5050 hc         1 8VH       0.041367
     15 H7          -2.4520    -2.0220    -0.5100 hc         1 8VH       0.041367
     16 H8           2.8650    -1.2960    -0.9900 hc         1 8VH       0.041367
     17 H9           3.3290    -0.4750     0.5100 hc         1 8VH       0.041367
     18 H10          2.4420    -2.0030     0.5780 hc         1 8VH       0.041367
@<TRIPOS>BOND
     1     1     2 ar  
     2     1     6 ar  
     3     1     8 1   
     4     2     3 ar  
     5     2     9 1   
     6     3     4 ar  
     7     3     7 1   
     8     4     5 ar  
     9     4    10 1   
    10     5     6 ar  
    11     5    11 1   
    12     6    12 1   
    13     7    13 1   
    14     7    14 1   
    15     7    15 1   
    16     8    16 1   
    17     8    17 1   
    18     8    18 1   
@<TRIPOS>SUBSTRUCTURE
     1 8VH         1 TEMP              0 ****  ****    0 ROOT
