@<TRIPOS>MOLECULE
8VH
   18    18     1     0     0
SMALL
abcg2


@<TRIPOS>ATOM
      1 C01          1.2150    -0.2940     0.0170 ca         1 8VH      -0.072800
      2 C02         -0.0040    -0.9680     0.0160 ca         1 8VH      -0.111000
      3 C03         -1.2230    -0.2930    -0.0180 ca         1 8VH      -0.072800
      4 C04         -1.2070     1.0990    -0.0590 ca         1 8VH      -0.114000
      5 C05         -0.0020     1.7880    -0.0540 ca         1 8VH      -0.106000
      6 C06          1.2020     1.0990    -0.0150 ca         1 8VH      -0.114000
      7 C07         -2.5190    -1.0490     0.0170 c3         1 8VH      -0.046800
      8 C08          2.5110    -1.0530     0.0210 c3         1 8VH      -0.046800
      9 H1          -0.0050    -2.0530     0.0420 ha         1 8VH       0.108000
     10 H2          -2.1400     1.6490    -0.0920 ha         1 8VH       0.110000
     11 H3          -0.0020     2.8710    -0.0820 ha         1 8VH       0.110000
     12 H4           2.1360     1.6480    -0.0090 ha         1 8VH       0.110000
     13 H5          -2.8670    -1.1780     1.0440 hc         1 8VH       0.041367
     14 H6          -3.3060    -0.5250    -0.5260 hc         1 8VH       0.041367
     15 H7          -2.4160    -2.0440    -0.4160 hc         1 8VH       0.041367
     16 H8           2.8980    -1.1690    -0.9940 hc         1 8VH       0.041367
     17 H9           3.2760    -0.5370     0.6000 hc         1 8VH       0.041367
     18 H10          2.3880    -2.0520     0.4370 hc         1 8VH       0.041367
@<TRIPOS>BOND
     1     1     2 ar  
     2     1     6 ar  
     3     1     8 1   
     4     2     3 ar  
     5     2     9 1   
     6     3     4 ar  
     7     3     7 1   
     8     4     5 ar  
     9     4    10 1   
    10     5     6 ar  
    11     5    11 1   
    12     6    12 1   
    13     7    13 1   
    14     7    14 1   
    15     7    15 1   
    16     8    16 1   
    17     8    17 1   
    18     8    18 1   
@<TRIPOS>SUBSTRUCTURE
     1 8VH         1 TEMP              0 ****  ****    0 ROOT
