@<TRIPOS>MOLECULE
8VI
   63    66     1     0     0
SMALL
No Charge or Current Charge


@<TRIPOS>ATOM
      1 C01         -1.4580     2.5760    -2.2560 c3         1 8VI      -0.113100
      2 C05         -1.0830     1.0790    -2.2390 c3         1 8VI       0.118000
      3 N08         -0.6180     0.5810    -0.9210 n          1 8VI      -0.229400
      4 C09         -1.5280     0.6150     0.1650 c          1 8VI       0.647700
      5 O10         -1.1500     0.9090     1.2950 o          1 8VI      -0.579100
      6 C11         -2.9470     0.1650    -0.0930 ca         1 8VI      -0.175600
      7 C12         -3.1870    -0.9670    -0.9020 ca         1 8VI      -0.050000
      8 C14         -4.4950    -1.4210    -1.1280 ca         1 8VI      -0.155000
      9 C16         -5.5800    -0.7520    -0.5470 ca         1 8VI      -0.060000
     10 C18         -5.3560     0.3740     0.2610 ca         1 8VI      -0.205000
     11 C20         -4.0410     0.8380     0.4960 ca         1 8VI       0.172100
     12 O21         -3.8010     1.9670     1.2560 os         1 8VI      -0.333100
     13 C22         -4.8540     2.7210     1.8810 c3         1 8VI       0.147900
     14 C26          0.7960     0.3590    -0.7290 ca         1 8VI      -0.017000
     15 C27          1.7020     1.4180    -0.9870 ca         1 8VI      -0.108000
     16 C29          3.0580     1.2390    -0.6920 ca         1 8VI       0.005600
     17 N30          4.0900     2.2150    -0.6030 n          1 8VI      -0.291000
     18 C31          4.1370     3.4560    -1.3940 c3         1 8VI       0.106300
     19 C35          5.1910     1.6970     0.0930 c          1 8VI       0.597000
     20 O36          6.2720     2.2370     0.2840 o          1 8VI      -0.565000
     21 N37          4.8020     0.4080     0.4830 n          1 8VI      -0.292000
     22 C38          5.7280    -0.5890     1.0460 c3         1 8VI       0.105300
     23 C42          3.5000     0.1170    -0.0080 ca         1 8VI       0.008600
     24 C43          2.6060    -0.8710     0.4110 ca         1 8VI      -0.137000
     25 C45          1.2510    -0.7730     0.0240 ca         1 8VI       0.239000
     26 N46          0.3780    -1.8410     0.3520 nh         1 8VI      -0.757400
     27 C47          0.1050    -2.1140     1.7970 c6         1 8VI       0.135800
     28 C50         -1.1530    -3.0140     2.0030 c6         1 8VI       0.143800
     29 N53         -1.0540    -4.2950     1.2480 n7         1 8VI      -0.842400
     30 C55         -0.8160    -4.0300    -0.1990 c6         1 8VI       0.148800
     31 C58          0.4260    -3.1020    -0.4640 c6         1 8VI       0.154500
     32 C60          0.5650    -2.7990    -1.9830 c3         1 8VI      -0.087100
     33 H011        -1.7520     2.8790    -3.2680 hc         1 8VI       0.041367
     34 H012        -2.3040     2.7710    -1.5860 hc         1 8VI       0.041367
     35 H013        -0.6200     3.2080    -1.9430 hc         1 8VI       0.041367
     36 H051        -1.9420     0.4930    -2.5820 h1         1 8VI       0.050200
     37 H052        -0.2820     0.9140    -2.9710 h1         1 8VI       0.050200
     38 H12         -2.3550    -1.5050    -1.3470 ha         1 8VI       0.129000
     39 H14         -4.6660    -2.2960    -1.7510 ha         1 8VI       0.119000
     40 H16         -6.5950    -1.1040    -0.7230 ha         1 8VI       0.112000
     41 H18         -6.2180     0.8750     0.6920 ha         1 8VI       0.118000
     42 H221        -4.4350     3.5690     2.4370 h1         1 8VI       0.042033
     43 H222        -5.5500     3.1170     1.1310 h1         1 8VI       0.042033
     44 H223        -5.4140     2.0950     2.5890 h1         1 8VI       0.042033
     45 H27          1.3630     2.3620    -1.3970 ha         1 8VI       0.133000
     46 H311         3.7820     4.2940    -0.7820 h1         1 8VI       0.051367
     47 H312         5.1650     3.6580    -1.7200 h1         1 8VI       0.051367
     48 H313         3.4970     3.3590    -2.2800 h1         1 8VI       0.051367
     49 H381         6.7510    -0.3900     0.7050 h1         1 8VI       0.050700
     50 H382         5.6960    -0.5400     2.1420 h1         1 8VI       0.050700
     51 H383         5.4350    -1.5960     0.7210 h1         1 8VI       0.050700
     52 H43          2.9450    -1.7000     1.0240 ha         1 8VI       0.124000
     53 H471         0.9730    -2.6140     2.2520 h1         1 8VI       0.048700
     54 H472        -0.0440    -1.1730     2.3440 h1         1 8VI       0.048700
     55 H58          1.3230    -3.6670    -0.1690 h1         1 8VI       0.018700
     56 H501        -1.2800    -3.2220     3.0760 h1         1 8VI       0.063200
     57 H502        -2.0440    -2.4590     1.6700 h1         1 8VI       0.063200
     58 H53         -0.2400    -4.8070     1.6090 hn         1 8VI       0.399000
     59 H551        -0.6730    -4.9850    -0.7260 h1         1 8VI       0.055700
     60 H552        -1.7130    -3.5600    -0.6270 h1         1 8VI       0.055700
     61 H601         1.5010    -2.2750    -2.2070 hc         1 8VI       0.039700
     62 H602         0.5690    -3.7270    -2.5670 hc         1 8VI       0.039700
     63 H603        -0.2630    -2.1810    -2.3480 hc         1 8VI       0.039700
@<TRIPOS>BOND
     1     1     2 1   
     2     1    33 1   
     3     1    34 1   
     4     1    35 1   
     5     2     3 1   
     6     2    36 1   
     7     2    37 1   
     8     3     4 1   
     9     3    14 1   
    10     4     5 2   
    11     4     6 1   
    12     6     7 ar  
    13     6    11 ar  
    14     7     8 ar  
    15     7    38 1   
    16     8     9 ar  
    17     8    39 1   
    18     9    10 ar  
    19     9    40 1   
    20    10    11 ar  
    21    10    41 1   
    22    11    12 1   
    23    12    13 1   
    24    13    42 1   
    25    13    43 1   
    26    13    44 1   
    27    14    15 ar  
    28    14    25 ar  
    29    15    16 ar  
    30    15    45 1   
    31    16    17 1   
    32    16    23 ar  
    33    17    18 1   
    34    17    19 1   
    35    18    46 1   
    36    18    47 1   
    37    18    48 1   
    38    19    20 2   
    39    19    21 1   
    40    21    22 1   
    41    21    23 1   
    42    22    49 1   
    43    22    50 1   
    44    22    51 1   
    45    23    24 ar  
    46    24    25 ar  
    47    24    52 1   
    48    25    26 1   
    49    26    27 1   
    50    26    31 1   
    51    27    28 1   
    52    27    53 1   
    53    27    54 1   
    54    28    29 1   
    55    28    56 1   
    56    28    57 1   
    57    29    30 1   
    58    29    58 1   
    59    30    31 1   
    60    30    59 1   
    61    30    60 1   
    62    31    32 1   
    63    31    55 1   
    64    32    61 1   
    65    32    62 1   
    66    32    63 1   
@<TRIPOS>SUBSTRUCTURE
     1 8VI         1 TEMP              0 ****  ****    0 ROOT
