@<TRIPOS>MOLECULE
8VI
   63    66     1     0     0
SMALL
bcc


@<TRIPOS>ATOM
      1 C01         -1.5320     2.0250    -2.3480 c3         1 8VI      -0.113100
      2 C05         -1.1570     0.6080    -1.9470 c3         1 8VI       0.118000
      3 N08         -0.7550     0.4780    -0.5460 n          1 8VI      -0.389000
      4 C09         -1.6250     0.4130     0.4850 c          1 8VI       0.714700
      5 O10         -1.2760     0.4880     1.6520 o          1 8VI      -0.579100
      6 C11         -3.0670     0.1940     0.1480 ca         1 8VI      -0.175600
      7 C12         -3.4880    -1.0630    -0.2620 ca         1 8VI      -0.068000
      8 C14         -4.8340    -1.3280    -0.4770 ca         1 8VI      -0.173000
      9 C16         -5.7590    -0.3140    -0.2820 ca         1 8VI      -0.078000
     10 C18         -5.3560     0.9520     0.1260 ca         1 8VI      -0.223000
     11 C20         -4.0060     1.2090     0.3520 ca         1 8VI       0.172100
     12 O21         -3.5150     2.3970     0.7450 os         1 8VI      -0.309900
     13 C22         -4.4080     3.4800     0.9180 c3         1 8VI       0.124700
     14 C26          0.6330     0.3960    -0.2620 ca         1 8VI       0.075600
     15 C27          1.4260     1.5350    -0.4150 ca         1 8VI      -0.126000
     16 C29          2.7830     1.4080    -0.2160 ca         1 8VI       0.005600
     17 N30          3.8130     2.3170    -0.3080 n          1 8VI      -0.358000
     18 C31          3.6690     3.7080    -0.6500 c3         1 8VI       0.106300
     19 C35          5.0050     1.7030     0.0020 c          1 8VI       0.806500
     20 O36          6.1080     2.2200     0.0230 o          1 8VI      -0.640500
     21 N37          4.7020     0.3900     0.2810 n          1 8VI      -0.359000
     22 C38          5.6630    -0.6160     0.6530 c3         1 8VI       0.105300
     23 C42          3.3470     0.1850     0.1530 ca         1 8VI       0.008600
     24 C43          2.5680    -0.9380     0.3230 ca         1 8VI      -0.155000
     25 C45          1.1890    -0.8360     0.1070 ca         1 8VI       0.100600
     26 N46          0.3450    -1.9690     0.2710 nh         1 8VI      -0.619000
     27 C47          0.3200    -2.4310     1.6570 c6         1 8VI       0.135800
     28 C50         -0.7310    -3.5150     1.8300 c6         1 8VI       0.143800
     29 N53         -0.5390    -4.6380     0.9290 n7         1 8VI      -0.787200
     30 C55         -0.4140    -4.1720    -0.4380 c6         1 8VI       0.148800
     31 C58          0.6240    -3.0690    -0.6570 c6         1 8VI       0.154500
     32 C60          0.5790    -2.6150    -2.1050 c3         1 8VI      -0.087100
     33 H011        -1.8330     2.0420    -3.3960 hc         1 8VI       0.041367
     34 H012        -2.3610     2.4050    -1.7550 hc         1 8VI       0.041367
     35 H013        -0.6930     2.7100    -2.2320 hc         1 8VI       0.041367
     36 H051        -1.9810    -0.0720    -2.1590 h1         1 8VI       0.050200
     37 H052        -0.3190     0.2630    -2.5510 h1         1 8VI       0.050200
     38 H12         -2.7470    -1.8400    -0.4100 ha         1 8VI       0.147000
     39 H14         -5.1520    -2.3120    -0.7940 ha         1 8VI       0.137000
     40 H16         -6.8110    -0.5010    -0.4490 ha         1 8VI       0.130000
     41 H18         -6.1030     1.7210     0.2640 ha         1 8VI       0.136000
     42 H221        -3.8050     4.3290     1.2320 h1         1 8VI       0.042033
     43 H222        -4.9210     3.7360    -0.0120 h1         1 8VI       0.042033
     44 H223        -5.1540     3.2740     1.6900 h1         1 8VI       0.042033
     45 H27          0.9810     2.4840    -0.6820 ha         1 8VI       0.151000
     46 H311         3.2100     4.2700     0.1640 h1         1 8VI       0.051367
     47 H312         4.6480     4.1310    -0.8580 h1         1 8VI       0.051367
     48 H313         3.0520     3.8120    -1.5410 h1         1 8VI       0.051367
     49 H381         6.6490    -0.1650     0.7070 h1         1 8VI       0.050700
     50 H382         5.4180    -1.0380     1.6270 h1         1 8VI       0.050700
     51 H383         5.6860    -1.4200    -0.0830 h1         1 8VI       0.050700
     52 H43          3.0070    -1.8850     0.6100 ha         1 8VI       0.142000
     53 H471         1.2980    -2.8370     1.9690 h1         1 8VI       0.048700
     54 H472         0.0960    -1.5850     2.3060 h1         1 8VI       0.048700
     55 H58          1.6210    -3.4990    -0.4530 h1         1 8VI       0.018700
     56 H501        -0.7220    -3.8740     2.8610 h1         1 8VI       0.063200
     57 H502        -1.7220    -3.0870     1.6460 h1         1 8VI       0.063200
     58 H53          0.3090    -5.1280     1.1910 hn         1 8VI       0.343800
     59 H551        -0.1720    -5.0200    -1.0830 h1         1 8VI       0.055700
     60 H552        -1.3900    -3.7920    -0.7610 h1         1 8VI       0.055700
     61 H601         1.3070    -1.8340    -2.3210 hc         1 8VI       0.039700
     62 H602         0.7970    -3.4570    -2.7650 hc         1 8VI       0.039700
     63 H603        -0.4120    -2.2360    -2.3600 hc         1 8VI       0.039700
@<TRIPOS>BOND
     1     1     2 1   
     2     1    33 1   
     3     1    34 1   
     4     1    35 1   
     5     2     3 1   
     6     2    36 1   
     7     2    37 1   
     8     3     4 1   
     9     3    14 1   
    10     4     5 2   
    11     4     6 1   
    12     6     7 ar  
    13     6    11 ar  
    14     7     8 ar  
    15     7    38 1   
    16     8     9 ar  
    17     8    39 1   
    18     9    10 ar  
    19     9    40 1   
    20    10    11 ar  
    21    10    41 1   
    22    11    12 1   
    23    12    13 1   
    24    13    42 1   
    25    13    43 1   
    26    13    44 1   
    27    14    15 ar  
    28    14    25 ar  
    29    15    16 ar  
    30    15    45 1   
    31    16    17 1   
    32    16    23 ar  
    33    17    18 1   
    34    17    19 1   
    35    18    46 1   
    36    18    47 1   
    37    18    48 1   
    38    19    20 2   
    39    19    21 1   
    40    21    22 1   
    41    21    23 1   
    42    22    49 1   
    43    22    50 1   
    44    22    51 1   
    45    23    24 ar  
    46    24    25 ar  
    47    24    52 1   
    48    25    26 1   
    49    26    27 1   
    50    26    31 1   
    51    27    28 1   
    52    27    53 1   
    53    27    54 1   
    54    28    29 1   
    55    28    56 1   
    56    28    57 1   
    57    29    30 1   
    58    29    58 1   
    59    30    31 1   
    60    30    59 1   
    61    30    60 1   
    62    31    32 1   
    63    31    55 1   
    64    32    61 1   
    65    32    62 1   
    66    32    63 1   
@<TRIPOS>SUBSTRUCTURE
     1 8VI         1 TEMP              0 ****  ****    0 ROOT
