@<TRIPOS>MOLECULE
8VJ
   44    46     1     0     0
SMALL
No Charge or Current Charge


@<TRIPOS>ATOM
      1 C29          8.2790    -0.2310     0.3660 c3         1 8VJ       0.151600
      2 N28          6.8590     0.1350     0.1710 n3         1 8VJ      -0.718600
      3 C30          6.6920     1.2290    -0.8140 c3         1 8VJ       0.151600
      4 C27          6.0080    -1.0450    -0.1170 c3         1 8VJ       0.219100
      5 C26          2.3940    -0.4820    -1.2880 ca         1 8VJ      -0.175500
      6 C25          3.7700    -0.7680    -1.3040 ca         1 8VJ      -0.061500
      7 C24          4.5140    -0.7340    -0.1090 ca         1 8VJ      -0.125300
      8 C23          3.8670    -0.4120     1.0990 ca         1 8VJ      -0.061500
      9 C22          2.4900    -0.1250     1.1160 ca         1 8VJ      -0.175500
     10 C21          1.7470    -0.1600    -0.0850 ca         1 8VJ       0.142100
     11 O12          0.3960     0.1120    -0.1330 os         1 8VJ      -0.343100
     12 C11         -0.3590     0.4520     1.0420 c3         1 8VJ       0.208900
     13 C10         -4.0380    -0.2140     0.1450 ca         1 8VJ       0.323000
     14 C09         -2.6950    -0.4020     0.5220 ca         1 8VJ      -0.082000
     15 C08         -1.8070     0.6860     0.6350 ca         1 8VJ      -0.072300
     16 C07         -2.2700     1.9870     0.3640 ca         1 8VJ      -0.106000
     17 C06         -3.6060     2.1980    -0.0130 ca         1 8VJ      -0.078000
     18 C05         -4.4880     1.1070    -0.1220 ca         1 8VJ      -0.123000
     19 C04         -5.8270     1.3170    -0.4990 ca         1 8VJ      -0.029000
     20 C03         -6.6650     0.1970    -0.5940 ca         1 8VJ      -0.209000
     21 C02         -6.1210    -1.0570    -0.3130 ca         1 8VJ       0.619900
     22 N02         -6.8150    -2.1950    -0.3590 nv         1 8VJ      -1.072900
     23 N01         -4.8660    -1.2830     0.0480 nb         1 8VJ      -0.760000
     24 H291         8.8700     0.6480     0.6560 h1         1 8VJ       0.030700
     25 H292         8.3810    -0.9830     1.1600 h1         1 8VJ       0.030700
     26 H293         8.7070    -0.6450    -0.5570 h1         1 8VJ       0.030700
     27 H301         6.9870     0.8990    -1.8200 h1         1 8VJ       0.030700
     28 H302         5.6490     1.5690    -0.8560 h1         1 8VJ       0.030700
     29 H303         7.3120     2.0940    -0.5420 h1         1 8VJ       0.030700
     30 H271         6.2830    -1.4760    -1.0900 h1         1 8VJ       0.035200
     31 H272         6.1910    -1.8250     0.6350 h1         1 8VJ       0.035200
     32 H25          4.2580    -1.0140    -2.2450 ha         1 8VJ       0.117000
     33 H23          4.4360    -0.3810     2.0270 ha         1 8VJ       0.117000
     34 H22          2.0220     0.1200     2.0640 ha         1 8VJ       0.121000
     35 H111        -0.3150    -0.3600     1.7800 h1         1 8VJ       0.042200
     36 H112         0.0420     1.3610     1.5100 h1         1 8VJ       0.042200
     37 H09         -2.3410    -1.4090     0.7260 ha         1 8VJ       0.129000
     38 H07         -1.5930     2.8350     0.4430 ha         1 8VJ       0.120000
     39 H06         -3.9520     3.2080    -0.2200 ha         1 8VJ       0.113000
     40 H04         -6.2060     2.3150    -0.7110 ha         1 8VJ       0.117000
     41 H03         -7.7060     0.3010    -0.8810 ha         1 8VJ       0.120000
     42 H021        -7.8220    -2.1260    -0.2560 hn         1 8VJ       0.481000
     43 H022        -6.3680    -2.9820     0.0950 hn         1 8VJ       0.481000
     44 H26          1.8260    -0.5080    -2.2140 ha         1 8VJ       0.121000
@<TRIPOS>BOND
     1     1     2 1   
     2     1    24 1   
     3     1    25 1   
     4     1    26 1   
     5     2     3 1   
     6     2     4 1   
     7     3    27 1   
     8     3    28 1   
     9     3    29 1   
    10     4     7 1   
    11     4    30 1   
    12     4    31 1   
    13     5     6 ar  
    14     5    10 ar  
    15     5    44 1   
    16     6     7 ar  
    17     6    32 1   
    18     7     8 ar  
    19     8     9 ar  
    20     8    33 1   
    21     9    10 ar  
    22     9    34 1   
    23    10    11 1   
    24    11    12 1   
    25    12    15 1   
    26    12    35 1   
    27    12    36 1   
    28    13    14 ar  
    29    13    18 ar  
    30    13    23 ar  
    31    14    15 ar  
    32    14    37 1   
    33    15    16 ar  
    34    16    17 ar  
    35    16    38 1   
    36    17    18 ar  
    37    17    39 1   
    38    18    19 ar  
    39    19    20 ar  
    40    19    40 1   
    41    20    21 ar  
    42    20    41 1   
    43    21    22 1   
    44    21    23 ar  
    45    22    42 1   
    46    22    43 1   
@<TRIPOS>SUBSTRUCTURE
     1 8VJ         1 TEMP              0 ****  ****    0 ROOT
