@<TRIPOS>MOLECULE
8VJ
   44    46     1     0     0
SMALL
bcc


@<TRIPOS>ATOM
      1 C29          8.1220    -0.3810     0.6170 c3         1 8VJ       0.151600
      2 N28          6.7560     0.0530     0.4280 n3         1 8VJ      -0.718600
      3 C30          6.6990     1.4200    -0.0400 c3         1 8VJ       0.151600
      4 C27          6.0250    -0.8510    -0.4380 c3         1 8VJ       0.219100
      5 C26          2.4400    -0.3020    -1.5900 ca         1 8VJ      -0.193500
      6 C25          3.8090    -0.5070    -1.6020 ca         1 8VJ      -0.079500
      7 C24          4.5410    -0.5960    -0.4210 ca         1 8VJ      -0.125300
      8 C23          3.8530    -0.4650     0.7790 ca         1 8VJ      -0.079500
      9 C22          2.4800    -0.2560     0.8140 ca         1 8VJ      -0.193500
     10 C21          1.7630    -0.1750    -0.3780 ca         1 8VJ       0.142100
     11 O12          0.4280     0.0210    -0.4550 os         1 8VJ      -0.319900
     12 C11         -0.2980     0.2190     0.7480 c3         1 8VJ       0.185700
     13 C10         -4.0490    -0.2260     0.3080 ca         1 8VJ       0.453600
     14 C09         -2.6990    -0.4520     0.6590 ca         1 8VJ      -0.165300
     15 C08         -1.7270     0.4740     0.3730 ca         1 8VJ      -0.072300
     16 C07         -2.0670     1.6730    -0.2890 ca         1 8VJ      -0.124000
     17 C06         -3.3680     1.9180    -0.6410 ca         1 8VJ      -0.096000
     18 C05         -4.3780     0.9800    -0.3510 ca         1 8VJ      -0.188300
     19 C04         -5.7420     1.1790    -0.6850 ca         1 8VJ      -0.047000
     20 C03         -6.6600     0.2290    -0.3770 ca         1 8VJ      -0.292300
     21 C02         -6.2240    -0.9610     0.2870 ca         1 8VJ       0.685200
     22 N02         -7.1300    -1.9310     0.5580 nv         1 8VJ      -0.962500
     23 N01         -4.9690    -1.1700     0.6160 nb         1 8VJ      -0.760000
     24 H291         8.6220     0.2730     1.3330 h1         1 8VJ       0.030700
     25 H292         8.1420    -1.3950     1.0210 h1         1 8VJ       0.030700
     26 H293         8.7170    -0.3770    -0.3090 h1         1 8VJ       0.030700
     27 H301         7.1590     1.5580    -1.0310 h1         1 8VJ       0.030700
     28 H302         5.6650     1.7590    -0.1040 h1         1 8VJ       0.030700
     29 H303         7.2180     2.0740     0.6620 h1         1 8VJ       0.030700
     30 H271         6.3860    -0.8110    -1.4800 h1         1 8VJ       0.035200
     31 H272         6.2170    -1.8710    -0.0900 h1         1 8VJ       0.035200
     32 H25          4.3180    -0.5980    -2.5550 ha         1 8VJ       0.135000
     33 H23          4.4000    -0.5180     1.7120 ha         1 8VJ       0.135000
     34 H22          1.9920    -0.1620     1.7740 ha         1 8VJ       0.139000
     35 H111        -0.2220    -0.6590     1.3980 h1         1 8VJ       0.042200
     36 H112         0.1080     1.0760     1.2970 h1         1 8VJ       0.042200
     37 H09         -2.4460    -1.3770     1.1640 ha         1 8VJ       0.147000
     38 H07         -1.2980     2.4030    -0.5090 ha         1 8VJ       0.138000
     39 H06         -3.6350     2.8400    -1.1450 ha         1 8VJ       0.131000
     40 H04         -6.0440     2.0910    -1.1870 ha         1 8VJ       0.135000
     41 H03         -7.7060     0.3580    -0.6230 ha         1 8VJ       0.138000
     42 H021        -8.1090    -1.7040     0.5490 hn         1 8VJ       0.425800
     43 H022        -6.8580    -2.6680     1.1870 hn         1 8VJ       0.425800
     44 H26          1.8880    -0.2310    -2.5200 ha         1 8VJ       0.139000
@<TRIPOS>BOND
     1     1     2 1   
     2     1    24 1   
     3     1    25 1   
     4     1    26 1   
     5     2     3 1   
     6     2     4 1   
     7     3    27 1   
     8     3    28 1   
     9     3    29 1   
    10     4     7 1   
    11     4    30 1   
    12     4    31 1   
    13     5     6 ar  
    14     5    10 ar  
    15     5    44 1   
    16     6     7 ar  
    17     6    32 1   
    18     7     8 ar  
    19     8     9 ar  
    20     8    33 1   
    21     9    10 ar  
    22     9    34 1   
    23    10    11 1   
    24    11    12 1   
    25    12    15 1   
    26    12    35 1   
    27    12    36 1   
    28    13    14 ar  
    29    13    18 ar  
    30    13    23 ar  
    31    14    15 ar  
    32    14    37 1   
    33    15    16 ar  
    34    16    17 ar  
    35    16    38 1   
    36    17    18 ar  
    37    17    39 1   
    38    18    19 ar  
    39    19    20 ar  
    40    19    40 1   
    41    20    21 ar  
    42    20    41 1   
    43    21    22 1   
    44    21    23 ar  
    45    22    42 1   
    46    22    43 1   
@<TRIPOS>SUBSTRUCTURE
     1 8VJ         1 TEMP              0 ****  ****    0 ROOT
