@<TRIPOS>MOLECULE
8VK
  100   106     1     0     0
SMALL
abcg2


@<TRIPOS>ATOM
      1 C1          -7.4210    -0.8290    -0.5110 c          1 8VK       0.583100
      2 C2          -6.4330    -0.8800     0.6440 c5         1 8VK       0.055700
      3 C3          -7.0710    -0.4540     1.9670 c5         1 8VK      -0.078400
      4 C4          -6.9260     1.0620     1.9600 c5         1 8VK      -0.082700
      5 C5          -5.5590     1.2950     1.2850 c5         1 8VK       0.161900
      6 C6          -5.5460     2.6290     0.5860 c2         1 8VK      -0.235200
      7 C10         -0.3780    -0.7690    -1.9650 c5         1 8VK       0.036700
      8 C11          4.4300    -0.8020    -0.4970 c          1 8VK       0.595100
      9 C12          5.6520     0.0170    -0.0660 c3         1 8VK       0.057700
     10 C13          5.2150     1.3010     0.6730 c3         1 8VK      -0.037100
     11 C14          6.3760     2.1790     1.0450 ca         1 8VK      -0.062300
     12 C15          7.2360     1.8920     2.1030 ca         1 8VK       0.118000
     13 C21         -3.4240     0.9920    -0.5890 c5         1 8VK       0.036700
     14 C22         -2.0670     1.5660    -2.4940 c5         1 8VK       0.109000
     15 C23         -2.9230     2.7640    -2.1040 c5         1 8VK      -0.090400
     16 C24         -0.0140    -2.8320    -3.1870 c5         1 8VK      -0.087400
     17 C25         -4.4110    -0.1420    -0.4400 c          1 8VK       0.583000
     18 C30          4.0920    -1.5830     1.8800 c5         1 8VK       0.109000
     19 C35          2.4870    -2.0970     0.1310 c5         1 8VK       0.079600
     20 C16          6.6330     3.3450     0.3250 ca         1 8VK      -0.092000
     21 C17          7.6990     4.1760     0.6330 ca         1 8VK      -0.110000
     22 C18          8.5430     3.8540     1.6860 ca         1 8VK      -0.106000
     23 C19          8.3100     2.7070     2.4290 ca         1 8VK      -0.107000
     24 C26          2.7150    -3.2910    -0.7560 c2         1 8VK      -0.194200
     25 C27          0.5010    -2.9940    -1.7610 c5         1 8VK       0.148900
     26 C28          1.7890    -3.7210    -1.5980 c2         1 8VK      -0.219200
     27 C29          3.2250    -2.7500     2.3250 c5         1 8VK      -0.096400
     28 C31          1.5100    -1.0980    -0.4870 c          1 8VK       0.591000
     29 C33          7.4060     1.0760    -3.2630 c3         1 8VK      -0.181100
     30 C34          1.9540    -2.5350     1.5160 c5         1 8VK      -0.077400
     31 C49         -7.0240     1.7100     3.3330 c3         1 8VK      -0.068400
     32 C50         -8.3900     1.5320     3.9800 c3         1 8VK      -0.090100
     33 C51         -9.2590    -1.9610    -1.4830 c3         1 8VK       0.166600
     34 C7          -4.9550     2.9870    -0.5500 c2         1 8VK      -0.181200
     35 C8          -4.1040     2.1030    -1.4000 c5         1 8VK      -0.048500
     36 C9          -0.9990    -1.6740    -3.0550 c5         1 8VK      -0.086400
     37 N1          -5.3860     0.0960     0.4560 n          1 8VK      -0.401800
     38 N2          -2.2610     0.6510    -1.3700 n          1 8VK      -0.403800
     39 N3           0.6080    -1.6100    -1.3290 n          1 8VK      -0.383800
     40 N4           6.5310     0.2530    -1.1810 ns         1 8VK      -0.496900
     41 N5           3.7350    -1.4270     0.4730 n          1 8VK      -0.406800
     42 O1          -8.2290    -1.8740    -0.4830 os         1 8VK      -0.450100
     43 O2          -7.4730     0.0540    -1.3270 o          1 8VK      -0.480000
     44 O3           1.5320     0.0860    -0.1880 o          1 8VK      -0.557000
     45 O4           4.0950    -0.8760    -1.6660 o          1 8VK      -0.573100
     46 O5           5.3350     1.8060    -2.3270 o          1 8VK      -0.591100
     47 O6          -1.6000    -0.9210     0.0910 o          1 8VK      -0.593100
     48 O7          -4.3820    -1.1490    -1.1270 o          1 8VK      -0.550000
     49 CL           6.9710     0.4800     3.0850 cl         1 8VK      -0.228000
     50 H25         -6.0220    -1.8900     0.7080 h1         1 8VK       0.105700
     51 H32         -8.1020    -0.7900     2.0700 hc         1 8VK       0.064700
     52 H31         -6.4980    -0.8860     2.7910 hc         1 8VK       0.064700
     53 H41         -7.7030     1.4890     1.3150 hc         1 8VK       0.068700
     54 H5          -4.7870     1.3020     2.0680 h1         1 8VK       0.065700
     55 H6          -6.1040     3.3940     1.1180 ha         1 8VK       0.178000
     56 H10          0.1140     0.0970    -2.4120 h1         1 8VK       0.085700
     57 H12          6.2400    -0.5810     0.6320 h1         1 8VK       0.059700
     58 H2A          4.5210     1.8640     0.0530 hc         1 8VK       0.082700
     59 H13          4.6700     1.0140     1.5720 hc         1 8VK       0.082700
     60 H21         -3.1300     1.3750     0.3960 h1         1 8VK       0.080700
     61 H93         -2.4170     1.1220    -3.4310 h1         1 8VK       0.053700
     62 H22         -1.0180     1.8330    -2.6160 h1         1 8VK       0.053700
     63 H23         -2.3770     3.4110    -1.4130 hc         1 8VK       0.059700
     64 H94         -3.2230     3.3570    -2.9670 hc         1 8VK       0.059700
     65 H4A          0.8140    -2.5700    -3.8510 hc         1 8VK       0.058700
     66 H24         -0.4790    -3.7420    -3.5640 hc         1 8VK       0.058700
     67 H30          3.8450    -0.6870     2.4570 h1         1 8VK       0.049700
     68 H36          5.1560    -1.7830     2.0030 h1         1 8VK       0.049700
     69 H99        -10.5300    -3.1950    -0.2410 hc         1 8VK       0.046033
     70 H52        -10.8350    -3.3090    -1.9720 hc         1 8VK       0.046033
     71 H53         -9.4260    -4.1090    -1.2820 hc         1 8VK       0.046033
     72 H16          5.9770     3.5990    -0.4970 ha         1 8VK       0.138000
     73 H17          7.8670     5.0740     0.0540 ha         1 8VK       0.118000
     74 H18          9.3790     4.4940     1.9390 ha         1 8VK       0.116000
     75 H19          8.9560     2.4520     3.2580 ha         1 8VK       0.126000
     76 H26          3.6460    -3.8320    -0.6320 ha         1 8VK       0.185000
     77 H27         -0.2750    -3.5020    -1.1680 h1         1 8VK       0.068700
     78 H28          1.9270    -4.6280    -2.1740 ha         1 8VK       0.188000
     79 H37          3.6960    -3.6990     2.0650 hc         1 8VK       0.054200
     80 H29          3.0500    -2.7430     3.4000 hc         1 8VK       0.054200
     81 H35          8.0970     0.2410    -3.1710 hc         1 8VK       0.057700
     82 H33          6.9660     1.0570    -4.2590 hc         1 8VK       0.057700
     83 H34          7.9780     2.0010    -3.1780 hc         1 8VK       0.057700
     84 H39          1.3670    -1.7290     1.9630 hc         1 8VK       0.071200
     85 H38          1.3180    -3.4160     1.4440 hc         1 8VK       0.071200
     86 H95         -6.2480     1.2880     3.9790 hc         1 8VK       0.042700
     87 H49         -6.8030     2.7780     3.2460 hc         1 8VK       0.042700
     88 H97         -9.1800     1.9640     3.3630 hc         1 8VK       0.035033
     89 H50         -8.6280     0.4790     4.1360 hc         1 8VK       0.035033
     90 H96         -8.4260     2.0230     4.9520 hc         1 8VK       0.035033
     91 H51         -8.8030    -1.9850    -2.4740 h1         1 8VK       0.048200
     92 H98         -9.8980    -1.0780    -1.4270 h1         1 8VK       0.048200
     93 H7          -5.1010     4.0020    -0.9030 ha         1 8VK       0.179000
     94 H8          -4.7290     1.6420    -2.1760 hc         1 8VK       0.088700
     95 H92         -1.9760    -2.0430    -2.7350 hc         1 8VK       0.065200
     96 H91         -1.1470    -1.1330    -3.9880 hc         1 8VK       0.065200
     97 H42          7.3480    -0.3320    -1.2220 hn         1 8VK       0.310500
     98 C20         -1.4470    -0.3410    -0.9720 c          1 8VK       0.615100
     99 C32          6.3090     1.0760    -2.2250 c          1 8VK       0.615100
    100 C52        -10.0520    -3.2180    -1.2200 c3         1 8VK      -0.097100
@<TRIPOS>BOND
     1     1     2 1   
     2     1    42 1   
     3     1    43 2   
     4     2     3 1   
     5     2    37 1   
     6     2    50 1   
     7     3     4 1   
     8     3    51 1   
     9     3    52 1   
    10     4     5 1   
    11     4    31 1   
    12     4    53 1   
    13     5     6 1   
    14     5    37 1   
    15     5    54 1   
    16     6    34 2   
    17     6    55 1   
    18     7    36 1   
    19     7    39 1   
    20     7    56 1   
    21     7    98 1   
    22     8     9 1   
    23     8    41 1   
    24     8    45 2   
    25     9    10 1   
    26     9    40 1   
    27     9    57 1   
    28    10    11 1   
    29    10    58 1   
    30    10    59 1   
    31    11    12 ar  
    32    11    20 ar  
    33    12    23 ar  
    34    12    49 1   
    35    13    17 1   
    36    13    35 1   
    37    13    38 1   
    38    13    60 1   
    39    14    15 1   
    40    14    38 1   
    41    14    61 1   
    42    14    62 1   
    43    15    35 1   
    44    15    63 1   
    45    15    64 1   
    46    16    25 1   
    47    16    36 1   
    48    16    65 1   
    49    16    66 1   
    50    17    37 1   
    51    17    48 2   
    52    18    27 1   
    53    18    41 1   
    54    18    67 1   
    55    18    68 1   
    56    19    24 1   
    57    19    28 1   
    58    19    30 1   
    59    19    41 1   
    60    20    21 ar  
    61    20    72 1   
    62    21    22 ar  
    63    21    73 1   
    64    22    23 ar  
    65    22    74 1   
    66    23    75 1   
    67    24    26 2   
    68    24    76 1   
    69    25    26 1   
    70    25    39 1   
    71    25    77 1   
    72    26    78 1   
    73    27    30 1   
    74    27    79 1   
    75    27    80 1   
    76    28    39 1   
    77    28    44 2   
    78    29    81 1   
    79    29    82 1   
    80    29    83 1   
    81    29    99 1   
    82    30    84 1   
    83    30    85 1   
    84    31    32 1   
    85    31    86 1   
    86    31    87 1   
    87    32    88 1   
    88    32    89 1   
    89    32    90 1   
    90    33    42 1   
    91    33    91 1   
    92    33    92 1   
    93    33   100 1   
    94    34    35 1   
    95    34    93 1   
    96    35    94 1   
    97    36    95 1   
    98    36    96 1   
    99    38    98 1   
   100    40    97 1   
   101    40    99 1   
   102    46    99 2   
   103    47    98 2   
   104    69   100 1   
   105    70   100 1   
   106    71   100 1   
@<TRIPOS>SUBSTRUCTURE
     1 8VK         1 TEMP              0 ****  ****    0 ROOT
