@<TRIPOS>MOLECULE
8VK
  100   106     1     0     0
SMALL
No Charge or Current Charge


@<TRIPOS>ATOM
      1 C1          -7.8630    -1.0900     0.0450 c          1 8VK       0.583100
      2 C2          -6.5930    -0.7530     0.8840 c5         1 8VK       0.055700
      3 C3          -6.9690     0.0650     2.1510 c5         1 8VK      -0.078400
      4 C4          -7.0420     1.5100     1.5910 c5         1 8VK      -0.082700
      5 C5          -5.7550     1.5730     0.7030 c5         1 8VK       0.161900
      6 C6          -6.0380     2.5720    -0.4330 c2         1 8VK      -0.235200
      7 C10         -0.4570    -0.9670    -2.3470 c5         1 8VK       0.036700
      8 C11          4.8200    -0.5480    -0.7250 c          1 8VK       0.595100
      9 C12          5.9710     0.2320     0.0000 c3         1 8VK       0.057700
     10 C13          5.4430     1.2280     1.0750 c3         1 8VK      -0.037100
     11 C14          6.5610     1.9770     1.8050 ca         1 8VK      -0.062300
     12 C15          7.3370     1.3550     2.8120 ca         1 8VK       0.118000
     13 C21         -3.6820     0.8320    -1.1200 c5         1 8VK       0.036700
     14 C22         -2.3630     1.1130    -3.1880 c5         1 8VK       0.109000
     15 C23         -3.4290     2.2280    -3.0420 c5         1 8VK      -0.090400
     16 C24         -0.0300    -3.0620    -3.5010 c5         1 8VK      -0.087400
     17 C25         -4.5500    -0.3190    -0.5280 c          1 8VK       0.583000
     18 C30          4.4810    -2.0560     1.3160 c5         1 8VK       0.109000
     19 C35          2.7880    -2.0820    -0.4940 c5         1 8VK       0.079600
     20 C16          6.8270     3.3230     1.4720 ca         1 8VK      -0.092000
     21 C17          7.8530     4.0310     2.1210 ca         1 8VK      -0.110000
     22 C18          8.6230     3.4040     3.1130 ca         1 8VK      -0.106000
     23 C19          8.3610     2.0670     3.4580 ca         1 8VK      -0.107000
     24 C26          3.1630    -3.0830    -1.5900 c2         1 8VK      -0.194200
     25 C27          0.7450    -3.1180    -2.1620 c5         1 8VK       0.148900
     26 C28          2.1900    -3.5510    -2.3930 c2         1 8VK      -0.219200
     27 C29          3.5980    -3.3230     1.4220 c5         1 8VK      -0.096400
     28 C31          1.6810    -1.0640    -0.9660 c          1 8VK       0.591000
     29 C33          7.8590     2.3980    -2.6060 c3         1 8VK      -0.181100
     30 C34          2.2770    -2.8520     0.7660 c5         1 8VK      -0.077400
     31 C49         -7.1250     2.6160     2.6760 c3         1 8VK      -0.068400
     32 C50         -8.3990     2.5640     3.5440 c3         1 8VK      -0.090100
     33 C51         -9.8710    -2.4230     0.1070 c3         1 8VK       0.166600
     34 C7          -5.5080     2.5600    -1.6770 c2         1 8VK      -0.181200
     35 C8          -4.5310     1.5170    -2.2190 c5         1 8VK      -0.048500
     36 C9          -1.1930    -2.1050    -3.1310 c5         1 8VK      -0.086400
     37 N1          -5.6430     0.1760     0.2140 n          1 8VK      -0.401800
     38 N2          -2.4870     0.3970    -1.8960 n          1 8VK      -0.403800
     39 N3           0.7040    -1.6970    -1.7680 n          1 8VK      -0.383800
     40 N4           6.9160     0.8610    -0.9630 ns         1 8VK      -0.496900
     41 N5           4.0430    -1.4680     0.0270 n          1 8VK      -0.406800
     42 O1          -8.6470    -1.9910     0.7230 os         1 8VK      -0.450100
     43 O2          -8.1420    -0.6500    -1.0640 o          1 8VK      -0.480000
     44 O3           1.6400     0.1370    -0.7160 o          1 8VK      -0.557000
     45 O4           4.5670    -0.3620    -1.9120 o          1 8VK      -0.573100
     46 O5           5.6340     2.6090    -1.7150 o          1 8VK      -0.591100
     47 O6          -1.4090    -0.5320    -0.0810 o          1 8VK      -0.593100
     48 O7          -4.3820    -1.5200    -0.7090 o          1 8VK      -0.550000
     49 Cl           7.0460    -0.3160     3.3000 cl         1 8VK      -0.228000
     50 H25         -6.1260    -1.7070     1.1610 h1         1 8VK       0.105700
     51 H32         -7.9070    -0.2660     2.6120 hc         1 8VK       0.064700
     52 H31         -6.1880    -0.0240     2.9150 hc         1 8VK       0.064700
     53 H41         -7.9400     1.6130     0.9690 hc         1 8VK       0.068700
     54 H5          -4.8750     1.8520     1.2990 h1         1 8VK       0.065700
     55 H6          -6.7230     3.3920    -0.2120 ha         1 8VK       0.178000
     56 H10         -0.0910    -0.1820    -3.0200 h1         1 8VK       0.085700
     57 H12          6.5580    -0.5290     0.5260 h1         1 8VK       0.059700
     58 H2A          4.7550     1.9380     0.6020 hc         1 8VK       0.082700
     59 H13          4.8230     0.7000     1.8060 hc         1 8VK       0.082700
     60 H21         -3.3780     1.5250    -0.3260 h1         1 8VK       0.080700
     61 H93         -2.5990     0.4460    -4.0280 h1         1 8VK       0.053700
     62 H22         -1.3640     1.5400    -3.3460 h1         1 8VK       0.053700
     63 H23         -3.0190     3.0890    -2.5000 hc         1 8VK       0.059700
     64 H94         -3.7870     2.5920    -4.0120 hc         1 8VK       0.059700
     65 H4A          0.5840    -2.6430    -4.3080 hc         1 8VK       0.058700
     66 H24         -0.3770    -4.0480    -3.8270 hc         1 8VK       0.058700
     67 H30          4.2740    -1.3750     2.1510 h1         1 8VK       0.049700
     68 H36          5.5490    -2.3110     1.3260 h1         1 8VK       0.049700
     69 H99        -10.7680    -2.9200     2.0300 hc         1 8VK       0.046033
     70 H52        -11.4930    -3.7670     0.6460 hc         1 8VK       0.046033
     71 H53         -9.9030    -4.2730     1.2580 hc         1 8VK       0.046033
     72 H16          6.2380     3.8240     0.7070 ha         1 8VK       0.138000
     73 H17          8.0510     5.0670     1.8540 ha         1 8VK       0.118000
     74 H18          9.4170     3.9520     3.6160 ha         1 8VK       0.116000
     75 H19          8.9530     1.5820     4.2310 ha         1 8VK       0.126000
     76 H26          4.1980    -3.3960    -1.7370 ha         1 8VK       0.185000
     77 H27          0.2320    -3.7490    -1.4220 h1         1 8VK       0.068700
     78 H28          2.4330    -4.2580    -3.1880 ha         1 8VK       0.188000
     79 H37          4.0400    -4.1600     0.8700 hc         1 8VK       0.054200
     80 H29          3.4640    -3.6530     2.4590 hc         1 8VK       0.054200
     81 H35          8.1520     1.5500    -3.2340 hc         1 8VK       0.057700
     82 H33          7.6460     3.2910    -3.2040 hc         1 8VK       0.057700
     83 H34          8.7430     2.5370    -1.9730 hc         1 8VK       0.057700
     84 H39          1.7270    -2.1840     1.4400 hc         1 8VK       0.071200
     85 H38          1.6080    -3.6850     0.5260 hc         1 8VK       0.071200
     86 H95         -6.2500     2.5550     3.3360 hc         1 8VK       0.042700
     87 H49         -7.0780     3.6020     2.2000 hc         1 8VK       0.042700
     88 H97         -9.2970     2.6300     2.9190 hc         1 8VK       0.035033
     89 H50         -8.4450     1.6340     4.1220 hc         1 8VK       0.035033
     90 H96         -8.4120     3.4030     4.2510 hc         1 8VK       0.035033
     91 H51         -9.6730    -2.9250    -0.8500 h1         1 8VK       0.048200
     92 H98        -10.5400    -1.5710    -0.0770 h1         1 8VK       0.048200
     93 H7          -5.8180     3.3570    -2.3570 ha         1 8VK       0.179000
     94 H8          -5.0570     0.7810    -2.8410 hc         1 8VK       0.088700
     95 H92         -1.9270    -2.6170    -2.4970 hc         1 8VK       0.065200
     96 H91         -1.7290    -1.7360    -4.0120 hc         1 8VK       0.065200
     97 H42          7.8290     0.4350    -1.0750 hn         1 8VK       0.310500
     98 C20         -1.4430    -0.3460    -1.2930 c          1 8VK       0.615100
     99 C32          6.6840     1.9850    -1.7290 c          1 8VK       0.615100
    100 C52        -10.5490    -3.4070     1.0720 c3         1 8VK      -0.097100
@<TRIPOS>BOND
     1     1     2 1   
     2     1    42 1   
     3     1    43 2   
     4     2     3 1   
     5     2    37 1   
     6     2    50 1   
     7     3     4 1   
     8     3    51 1   
     9     3    52 1   
    10     4     5 1   
    11     4    31 1   
    12     4    53 1   
    13     5     6 1   
    14     5    37 1   
    15     5    54 1   
    16     6    34 2   
    17     6    55 1   
    18     7    36 1   
    19     7    39 1   
    20     7    56 1   
    21     7    98 1   
    22     8     9 1   
    23     8    41 1   
    24     8    45 2   
    25     9    10 1   
    26     9    40 1   
    27     9    57 1   
    28    10    11 1   
    29    10    58 1   
    30    10    59 1   
    31    11    12 ar  
    32    11    20 ar  
    33    12    23 ar  
    34    12    49 1   
    35    13    17 1   
    36    13    35 1   
    37    13    38 1   
    38    13    60 1   
    39    14    15 1   
    40    14    38 1   
    41    14    61 1   
    42    14    62 1   
    43    15    35 1   
    44    15    63 1   
    45    15    64 1   
    46    16    25 1   
    47    16    36 1   
    48    16    65 1   
    49    16    66 1   
    50    17    37 1   
    51    17    48 2   
    52    18    27 1   
    53    18    41 1   
    54    18    67 1   
    55    18    68 1   
    56    19    24 1   
    57    19    28 1   
    58    19    30 1   
    59    19    41 1   
    60    20    21 ar  
    61    20    72 1   
    62    21    22 ar  
    63    21    73 1   
    64    22    23 ar  
    65    22    74 1   
    66    23    75 1   
    67    24    26 2   
    68    24    76 1   
    69    25    26 1   
    70    25    39 1   
    71    25    77 1   
    72    26    78 1   
    73    27    30 1   
    74    27    79 1   
    75    27    80 1   
    76    28    39 1   
    77    28    44 2   
    78    29    81 1   
    79    29    82 1   
    80    29    83 1   
    81    29    99 1   
    82    30    84 1   
    83    30    85 1   
    84    31    32 1   
    85    31    86 1   
    86    31    87 1   
    87    32    88 1   
    88    32    89 1   
    89    32    90 1   
    90    33    42 1   
    91    33    91 1   
    92    33    92 1   
    93    33   100 1   
    94    34    35 1   
    95    34    93 1   
    96    35    94 1   
    97    36    95 1   
    98    36    96 1   
    99    38    98 1   
   100    40    97 1   
   101    40    99 1   
   102    46    99 2   
   103    47    98 2   
   104    69   100 1   
   105    70   100 1   
   106    71   100 1   
@<TRIPOS>SUBSTRUCTURE
     1 8VK         1 TEMP              0 ****  ****    0 ROOT
