@<TRIPOS>MOLECULE
8VL
   50    52     1     0     0
SMALL
No Charge or Current Charge


@<TRIPOS>ATOM
      1 C10         -2.7400    -2.9300    -0.0640 ca         1 8VL      -0.061000
      2 C15         -4.3620    -1.8960     1.9770 ca         1 8VL      -0.114000
      3 C17         -3.3600     0.4170     1.7530 c3         1 8VL      -0.056100
      4 C20         -4.7620     3.7490     0.2190 c          1 8VL       0.717000
      5 C24          0.1190     0.1390    -3.2880 c3         1 8VL      -0.086100
      6 C26          0.4370     1.8670     0.8010 ca         1 8VL      -0.102000
      7 C28          1.8350     2.8330     2.5330 ca         1 8VL      -0.098000
      8 C02          4.0140     1.0760     0.0500 ca         1 8VL      -0.002900
      9 C03          3.8890     0.3300    -1.1260 ca         1 8VL      -0.082000
     10 C04          2.6290     0.0900    -1.6840 ca         1 8VL      -0.104000
     11 C05          1.4540     0.5980    -1.0860 ca         1 8VL      -0.029300
     12 C06          0.0860     0.2940    -1.7420 c3         1 8VL      -0.100400
     13 C07         -0.5520    -0.9490    -1.0830 c          1 8VL       0.605100
     14 C09         -2.6270    -1.5680     0.2910 ca         1 8VL      -0.050000
     15 C11         -3.6520    -3.7720     0.6000 ca         1 8VL      -0.038000
     16 C12         -3.7590    -5.1560     0.2290 cg         1 8VL       0.343000
     17 C14         -4.4620    -3.2500     1.6230 ca         1 8VL      -0.072000
     18 C16         -3.4510    -1.0460     1.3190 ca         1 8VL      -0.023300
     19 C18         -4.1240     1.3720     0.8080 c3         1 8VL      -0.050400
     20 C19         -3.9650     2.8630     1.1920 c3         1 8VL      -0.211400
     21 C25          1.5730     1.3480     0.1260 ca         1 8VL      -0.024000
     22 C27          0.5680     2.5990     1.9900 ca         1 8VL      -0.090000
     23 C29          2.9740     2.3310     1.8890 ca         1 8VL      -0.109000
     24 C30          2.8600     1.5870     0.6900 ca         1 8VL      -0.015000
     25 N08         -1.7270    -0.6980    -0.3870 ns         1 8VL      -0.172000
     26 N13         -3.8490    -6.2790    -0.0820 n1         1 8VL      -0.487000
     27 O21         -5.9300     3.9900     0.4830 o          1 8VL      -0.735500
     28 O22         -4.2060     4.1300    -0.8000 o          1 8VL      -0.735500
     29 O23         -0.0320    -2.0580    -1.1480 o          1 8VL      -0.581100
     30 H1          -2.1370    -3.3430    -0.8690 ha         1 8VL       0.126000
     31 H2          -4.9960    -1.5060     2.7690 ha         1 8VL       0.123000
     32 H3          -3.7620     0.5340     2.7670 hc         1 8VL       0.046200
     33 H4          -2.3110     0.7270     1.8210 hc         1 8VL       0.046200
     34 H6           0.6360     0.9890    -3.7510 hc         1 8VL       0.043033
     35 H7           0.6190    -0.7860    -3.5950 hc         1 8VL       0.043033
     36 H8          -0.5690     1.7200     0.4300 ha         1 8VL       0.123000
     37 H9           1.9360     3.4020     3.4550 ha         1 8VL       0.115000
     38 H10          4.7770    -0.0710    -1.6100 ha         1 8VL       0.121000
     39 H11          2.5840    -0.5090    -2.5880 ha         1 8VL       0.115000
     40 H12         -0.5810     1.1470    -1.5860 hc         1 8VL       0.076700
     41 H13         -5.1720    -3.8910     2.1430 ha         1 8VL       0.118000
     42 H14         -3.7740     1.2290    -0.2220 hc         1 8VL       0.041200
     43 H15         -5.1880     1.1050     0.8170 hc         1 8VL       0.041200
     44 H16         -2.8920     3.0790     1.1170 hc         1 8VL       0.014700
     45 H17         -4.3640     2.9550     2.2100 hc         1 8VL       0.014700
     46 H18         -0.3170     2.9880     2.4900 ha         1 8VL       0.140000
     47 H19          3.9400     2.5300     2.3420 ha         1 8VL       0.119000
     48 H20         -2.0040     0.2740    -0.3710 hn         1 8VL       0.173000
     49 Br1          5.7930     1.3460     0.7330 br         1 8VL      -0.120100
     50 H5          -0.9020     0.1080    -3.6880 hc         1 8VL       0.043033
@<TRIPOS>BOND
     1     1    14 ar  
     2     1    15 ar  
     3     1    30 1   
     4     2    17 ar  
     5     2    18 ar  
     6     2    31 1   
     7     3    18 1   
     8     3    19 1   
     9     3    32 1   
    10     3    33 1   
    11     4    20 1   
    12     4    27 1   
    13     4    28 1   
    14     5    12 1   
    15     5    34 1   
    16     5    35 1   
    17     5    50 1   
    18     6    21 ar  
    19     6    22 ar  
    20     6    36 1   
    21     7    22 ar  
    22     7    23 ar  
    23     7    37 1   
    24     8     9 ar  
    25     8    24 ar  
    26     8    49 1   
    27     9    10 ar  
    28     9    38 1   
    29    10    11 ar  
    30    10    39 1   
    31    11    12 1   
    32    11    21 ar  
    33    12    13 1   
    34    12    40 1   
    35    13    25 1   
    36    13    29 2   
    37    14    18 ar  
    38    14    25 1   
    39    15    16 1   
    40    15    17 ar  
    41    16    26 3   
    42    17    41 1   
    43    19    20 1   
    44    19    42 1   
    45    19    43 1   
    46    20    44 1   
    47    20    45 1   
    48    21    24 ar  
    49    22    46 1   
    50    23    24 ar  
    51    23    47 1   
    52    25    48 1   
@<TRIPOS>SUBSTRUCTURE
     1 8VL         1 TEMP              0 ****  ****    0 ROOT
