@<TRIPOS>MOLECULE
8VL
   50    52     1     0     0
SMALL
bcc


@<TRIPOS>ATOM
      1 C10         -2.9240    -2.8130    -0.4640 ca         1 8VL      -0.079000
      2 C15         -4.2160    -1.9760     1.8390 ca         1 8VL      -0.132000
      3 C17         -3.1790     0.3070     1.6900 c3         1 8VL      -0.056100
      4 C20         -4.6890     3.8340     0.7990 c          1 8VL       0.927600
      5 C24          0.2780    -0.4210    -3.0820 c3         1 8VL      -0.086100
      6 C26          0.3480     1.9890     0.6260 ca         1 8VL      -0.120000
      7 C28          1.6030     3.1080     2.3390 ca         1 8VL      -0.116000
      8 C02          3.9520     1.1900     0.1510 ca         1 8VL      -0.002900
      9 C03          3.9080     0.3710    -0.9390 ca         1 8VL      -0.100000
     10 C04          2.6710     0.0590    -1.5320 ca         1 8VL      -0.122000
     11 C05          1.4930     0.5600    -1.0530 ca         1 8VL      -0.029300
     12 C06          0.1700     0.1910    -1.6830 c3         1 8VL      -0.100400
     13 C07         -0.5520    -0.8180    -0.7940 c          1 8VL       0.672100
     14 C09         -2.7380    -1.5230     0.0060 ca         1 8VL       0.042600
     15 C11         -3.7580    -3.6860     0.2270 ca         1 8VL      -0.038000
     16 C12         -3.9490    -5.0140    -0.2570 cg         1 8VL       0.253800
     17 C14         -4.4130    -3.2650     1.3830 ca         1 8VL      -0.090000
     18 C16         -3.3720    -1.0870     1.1740 ca         1 8VL      -0.023300
     19 C18         -4.0890     1.3240     0.9910 c3         1 8VL      -0.050400
     20 C19         -3.7980     2.7480     1.4310 c3         1 8VL      -0.211400
     21 C25          1.5280     1.4270     0.0810 ca         1 8VL      -0.024000
     22 C27          0.3770     2.8030     1.7240 ca         1 8VL      -0.108000
     23 C29          2.7680     2.5960     1.8390 ca         1 8VL      -0.127000
     24 C30          2.7700     1.7480     0.7060 ca         1 8VL      -0.015000
     25 N08         -1.8930    -0.6440    -0.7100 ns         1 8VL      -0.498100
     26 N13         -4.1070    -6.0870    -0.6480 n1         1 8VL      -0.397800
     27 O21         -4.5390     4.9900     1.2480 o          1 8VL      -0.840800
     28 O22         -5.4730     3.4860    -0.1050 o          1 8VL      -0.840800
     29 O23          0.0290    -1.7310    -0.2420 o          1 8VL      -0.581100
     30 H1          -2.4310    -3.1330    -1.3730 ha         1 8VL       0.144000
     31 H2          -4.7150    -1.6530     2.7440 ha         1 8VL       0.141000
     32 H3          -3.3810     0.3260     2.7630 hc         1 8VL       0.046200
     33 H4          -2.1330     0.6000     1.5690 hc         1 8VL       0.046200
     34 H6           0.8140     0.2490    -3.7540 hc         1 8VL       0.043033
     35 H7           0.7920    -1.3820    -3.0710 hc         1 8VL       0.043033
     36 H8          -0.6080     1.7850     0.1650 ha         1 8VL       0.141000
     37 H9           1.6260     3.7520     3.2080 ha         1 8VL       0.133000
     38 H10          4.8100    -0.0520    -1.3580 ha         1 8VL       0.139000
     39 H11          2.6830    -0.6010    -2.3890 ha         1 8VL       0.133000
     40 H12         -0.4380     1.0940    -1.7790 hc         1 8VL       0.076700
     41 H13         -5.0670    -3.9410     1.9180 ha         1 8VL       0.136000
     42 H14         -3.9790     1.2460    -0.0940 hc         1 8VL       0.041200
     43 H15         -5.1300     1.0690     1.2020 hc         1 8VL       0.041200
     44 H16         -2.7540     2.9970     1.1990 hc         1 8VL       0.014700
     45 H17         -3.8730     2.8250     2.5210 hc         1 8VL       0.014700
     46 H18         -0.5420     3.2160     2.1190 ha         1 8VL       0.158000
     47 H19          3.6990     2.8490     2.3270 ha         1 8VL       0.137000
     48 H20         -2.3140     0.1460    -1.1770 hn         1 8VL       0.339500
     49 BR1          5.6450     1.5620     0.9080 br         1 8VL      -0.120100
     50 H5          -0.7170    -0.5820    -3.4960 hc         1 8VL       0.043033
@<TRIPOS>BOND
     1     1    14 ar  
     2     1    15 ar  
     3     1    30 1   
     4     2    17 ar  
     5     2    18 ar  
     6     2    31 1   
     7     3    18 1   
     8     3    19 1   
     9     3    32 1   
    10     3    33 1   
    11     4    20 1   
    12     4    27 1   
    13     4    28 1   
    14     5    12 1   
    15     5    34 1   
    16     5    35 1   
    17     5    50 1   
    18     6    21 ar  
    19     6    22 ar  
    20     6    36 1   
    21     7    22 ar  
    22     7    23 ar  
    23     7    37 1   
    24     8     9 ar  
    25     8    24 ar  
    26     8    49 1   
    27     9    10 ar  
    28     9    38 1   
    29    10    11 ar  
    30    10    39 1   
    31    11    12 1   
    32    11    21 ar  
    33    12    13 1   
    34    12    40 1   
    35    13    25 1   
    36    13    29 2   
    37    14    18 ar  
    38    14    25 1   
    39    15    16 1   
    40    15    17 ar  
    41    16    26 3   
    42    17    41 1   
    43    19    20 1   
    44    19    42 1   
    45    19    43 1   
    46    20    44 1   
    47    20    45 1   
    48    21    24 ar  
    49    22    46 1   
    50    23    24 ar  
    51    23    47 1   
    52    25    48 1   
@<TRIPOS>SUBSTRUCTURE
     1 8VL         1 TEMP              0 ****  ****    0 ROOT
