@<TRIPOS>MOLECULE
8VM
   69    71     1     0     0
SMALL
No Charge or Current Charge


@<TRIPOS>ATOM
      1 C6          -4.7030     0.4580     0.1700 c          1 8VM       0.671700
      2 C1          -1.8920    -2.3700     0.1000 cc         1 8VM      -0.149300
      3 C4          -3.8100    -0.7180     0.0640 cc         1 8VM      -0.338600
      4 C3          -4.1480    -1.9410    -0.4830 cd         1 8VM       0.005700
      5 C2          -3.0580    -2.8560    -0.4470 cd         1 8VM      -0.167000
      6 C17          1.8500    -2.2400     0.8300 ca         1 8VM      -0.066000
      7 C18          2.9310    -1.3720     0.6000 ca         1 8VM      -0.203000
      8 C21          0.6030    -1.1450    -0.9340 ca         1 8VM      -0.077000
      9 C16          0.6530    -2.1290     0.0830 ca         1 8VM      -0.121300
     10 C20          1.6810    -0.2710    -1.1720 ca         1 8VM      -0.101300
     11 C19          2.8510    -0.3790    -0.3960 ca         1 8VM       0.149100
     12 C9          -4.6830     2.7670     0.9920 cc         1 8VM       0.523400
     13 C22          1.5740     0.7800    -2.2720 c3         1 8VM      -0.036800
     14 C14         -5.4850    -2.3260    -1.0680 c3         1 8VM      -0.038800
     15 C32         -0.6970    -2.7510     2.9340 c3         1 8VM      -0.092100
     16 C34         -0.3710    -3.9330    -2.2130 c3         1 8VM      -0.092100
     17 C28          7.2450     2.1450     1.7660 c3         1 8VM      -0.085767
     18 C29          8.3000     2.8110    -0.4330 c3         1 8VM      -0.085767
     19 C30          8.2400     0.3910     0.2420 c3         1 8VM      -0.085767
     20 C31         -0.5870    -3.7260     1.7360 c3         1 8VM      -0.065400
     21 C33         -0.3890    -4.2840    -0.7050 c3         1 8VM      -0.065400
     22 C24          5.1350     0.4440     0.0850 c3         1 8VM       0.128600
     23 C25          6.0690     1.5570    -0.4720 c3         1 8VM       0.173300
     24 C27          7.4430     1.7250     0.2800 c3         1 8VM      -0.076000
     25 N10         -5.9420     3.1860     0.7040 na         1 8VM      -0.224700
     26 N11         -6.1160     4.4730     1.0980 nc         1 8VM      -0.202800
     27 N12         -4.9630     4.8080     1.6150 nd         1 8VM      -0.031000
     28 N13         -4.0600     3.7700     1.5620 nd         1 8VM      -0.441000
     29 N8          -4.1170     1.5450     0.7570 ns         1 8VM      -0.481400
     30 O7          -5.8600     0.4850    -0.2210 o          1 8VM      -0.591100
     31 O26          5.3430     2.8000    -0.4900 oh         1 8VM      -0.640000
     32 O23          3.8950     0.4910    -0.6490 os         1 8VM      -0.332100
     33 S5          -2.1470    -0.7110     0.6450 ss         1 8VM       0.256000
     34 H1          -3.1510    -3.8670    -0.8300 ha         1 8VM       0.141000
     35 H2           1.9680    -2.9980     1.5970 ha         1 8VM       0.112000
     36 H3           3.8240    -1.4920     1.2060 ha         1 8VM       0.116000
     37 H4          -0.2830    -1.0610    -1.5580 ha         1 8VM       0.118000
     38 H5           1.6630     1.7910    -1.8580 hc         1 8VM       0.046033
     39 H6           2.3680     0.6500    -3.0160 hc         1 8VM       0.046033
     40 H7           0.6150     0.7240    -2.8010 hc         1 8VM       0.046033
     41 H8          -5.7430    -1.6860    -1.9190 hc         1 8VM       0.056033
     42 H9          -5.4830    -3.3630    -1.4250 hc         1 8VM       0.056033
     43 H10         -6.2820    -2.2390    -0.3200 hc         1 8VM       0.056033
     44 H11         -1.6950    -2.3030     2.9850 hc         1 8VM       0.038367
     45 H12         -0.5340    -3.2930     3.8730 hc         1 8VM       0.038367
     46 H13          0.0440    -1.9470     2.8750 hc         1 8VM       0.038367
     47 H14         -1.2430    -3.3340    -2.4990 hc         1 8VM       0.038367
     48 H15          0.5360    -3.3780    -2.4790 hc         1 8VM       0.038367
     49 H16         -0.3820    -4.8510    -2.8110 hc         1 8VM       0.038367
     50 H17          8.2140     2.2970     2.2580 hc         1 8VM       0.037144
     51 H18          6.6830     3.0840     1.8450 hc         1 8VM       0.037144
     52 H19          6.7070     1.3770     2.3340 hc         1 8VM       0.037144
     53 H20          8.4510     2.5590    -1.4900 hc         1 8VM       0.037144
     54 H21          7.8200     3.7960    -0.3860 hc         1 8VM       0.037144
     55 H22          9.2870     2.9030     0.0350 hc         1 8VM       0.037144
     56 H23          8.3660     0.0370    -0.7890 hc         1 8VM       0.037144
     57 H24          9.2390     0.5190     0.6770 hc         1 8VM       0.037144
     58 H25          7.7350    -0.3970     0.8130 hc         1 8VM       0.037144
     59 H26          0.2930    -4.3630     1.8830 hc         1 8VM       0.042700
     60 H27         -1.4420    -4.4110     1.7950 hc         1 8VM       0.042700
     61 H28         -1.1840    -5.0190    -0.5340 hc         1 8VM       0.042700
     62 H29          0.5480    -4.8080    -0.4780 hc         1 8VM       0.042700
     63 H30          5.6120    -0.5360    -0.0400 h1         1 8VM       0.038200
     64 H31          4.9490     0.6090     1.1540 h1         1 8VM       0.038200
     65 H32          6.3010     1.2680    -1.5080 h1         1 8VM       0.085700
     66 H33         -6.6680     2.6360     0.2590 hn         1 8VM       0.411000
     67 H34         -3.1610     1.4270     1.0460 hn         1 8VM       0.360500
     68 H35          4.4180     2.5600    -0.7160 ho         1 8VM       0.438000
     69 C15         -0.5550    -3.0910     0.3000 c3         1 8VM       0.078600
@<TRIPOS>BOND
     1     1     3 1   
     2     1    29 1   
     3     1    30 2   
     4     2     5 2   
     5     2    33 1   
     6     2    69 1   
     7     3     4 2   
     8     3    33 1   
     9     4     5 1   
    10     4    14 1   
    11     5    34 1   
    12     6     7 ar  
    13     6     9 ar  
    14     6    35 1   
    15     7    11 ar  
    16     7    36 1   
    17     8     9 ar  
    18     8    10 ar  
    19     8    37 1   
    20     9    69 1   
    21    10    11 ar  
    22    10    13 1   
    23    11    32 1   
    24    12    25 1   
    25    12    28 2   
    26    12    29 1   
    27    13    38 1   
    28    13    39 1   
    29    13    40 1   
    30    14    41 1   
    31    14    42 1   
    32    14    43 1   
    33    15    20 1   
    34    15    44 1   
    35    15    45 1   
    36    15    46 1   
    37    16    21 1   
    38    16    47 1   
    39    16    48 1   
    40    16    49 1   
    41    17    24 1   
    42    17    50 1   
    43    17    51 1   
    44    17    52 1   
    45    18    24 1   
    46    18    53 1   
    47    18    54 1   
    48    18    55 1   
    49    19    24 1   
    50    19    56 1   
    51    19    57 1   
    52    19    58 1   
    53    20    59 1   
    54    20    60 1   
    55    20    69 1   
    56    21    61 1   
    57    21    62 1   
    58    21    69 1   
    59    22    23 1   
    60    22    32 1   
    61    22    63 1   
    62    22    64 1   
    63    23    24 1   
    64    23    31 1   
    65    23    65 1   
    66    25    26 1   
    67    25    66 1   
    68    26    27 2   
    69    27    28 1   
    70    29    67 1   
    71    31    68 1   
@<TRIPOS>SUBSTRUCTURE
     1 8VM         1 TEMP              0 ****  ****    0 ROOT
