@<TRIPOS>MOLECULE
8VM
   69    71     1     0     0
SMALL
abcg2


@<TRIPOS>ATOM
      1 C6          -4.6830     0.3930     0.1070 c          1 8VM       0.671700
      2 C1          -1.8240    -2.2820     0.0200 cc         1 8VM      -0.149300
      3 C4          -3.7820    -0.7490     0.0190 cc         1 8VM      -0.338600
      4 C3          -4.1140    -2.0170    -0.4080 cd         1 8VM       0.005700
      5 C2          -2.9870    -2.8740    -0.3910 cd         1 8VM      -0.167000
      6 C17          1.7930    -1.9950     0.9130 ca         1 8VM      -0.066000
      7 C18          2.8730    -1.1420     0.7100 ca         1 8VM      -0.203000
      8 C21          0.6860    -1.0360    -0.9550 ca         1 8VM      -0.077000
      9 C16          0.6700    -1.9580     0.0990 ca         1 8VM      -0.121300
     10 C20          1.7410    -0.1690    -1.1870 ca         1 8VM      -0.101300
     11 C19          2.8520    -0.2250    -0.3330 ca         1 8VM       0.149100
     12 C9          -4.8890     2.6620     0.9250 cc         1 8VM       0.523400
     13 C22          1.7090     0.8090    -2.3240 c3         1 8VM      -0.036800
     14 C14         -5.4650    -2.4860    -0.8430 c3         1 8VM      -0.038800
     15 C32         -0.8080    -2.6210     2.8500 c3         1 8VM      -0.092100
     16 C34         -0.2080    -3.8110    -2.1950 c3         1 8VM      -0.092100
     17 C28          7.3980     1.6650     1.7430 c3         1 8VM      -0.085767
     18 C29          8.2620     2.6660    -0.3760 c3         1 8VM      -0.085767
     19 C30          8.0340     0.2050    -0.1850 c3         1 8VM      -0.085767
     20 C31         -0.5430    -3.5620     1.6850 c3         1 8VM      -0.065400
     21 C33         -0.2820    -4.1290    -0.7100 c3         1 8VM      -0.065400
     22 C24          5.0190     0.6090     0.1850 c3         1 8VM       0.128600
     23 C25          5.9810     1.6450    -0.3790 c3         1 8VM       0.173300
     24 C27          7.4050     1.5440     0.2160 c3         1 8VM      -0.076000
     25 N10         -6.0890     2.9710     0.4360 na         1 8VM      -0.224700
     26 N11         -6.3780     4.2170     0.8010 nc         1 8VM      -0.202800
     27 N12         -5.3900     4.6330     1.4820 nd         1 8VM      -0.031000
     28 N13         -4.4400     3.7030     1.5870 nd         1 8VM      -0.441000
     29 N8          -4.2060     1.4910     0.7870 ns         1 8VM      -0.481400
     30 O7          -5.7990     0.4020    -0.3830 o          1 8VM      -0.591100
     31 O26          5.4290     2.9380    -0.2750 oh         1 8VM      -0.640000
     32 O23          3.8470     0.6400    -0.6060 os         1 8VM      -0.332100
     33 S5          -2.1000    -0.6350     0.4040 ss         1 8VM       0.256000
     34 H1          -3.0520    -3.9150    -0.6780 ha         1 8VM       0.141000
     35 H2           1.8620    -2.6950     1.7340 ha         1 8VM       0.112000
     36 H3           3.7180    -1.2140     1.3800 ha         1 8VM       0.116000
     37 H4          -0.1520    -0.9910    -1.6390 ha         1 8VM       0.118000
     38 H5           1.7510     1.8400    -1.9680 hc         1 8VM       0.046033
     39 H6           2.5540     0.6730    -3.0010 hc         1 8VM       0.046033
     40 H7           0.7950     0.6980    -2.9060 hc         1 8VM       0.046033
     41 H8          -5.7840    -1.9870    -1.7560 hc         1 8VM       0.056033
     42 H9          -5.4460    -3.5580    -1.0320 hc         1 8VM       0.056033
     43 H10         -6.2240    -2.2890    -0.0870 hc         1 8VM       0.056033
     44 H11         -1.8160    -2.2110     2.8220 hc         1 8VM       0.038367
     45 H12         -0.7080    -3.1660     3.7900 hc         1 8VM       0.038367
     46 H13         -0.1110    -1.7830     2.8810 hc         1 8VM       0.038367
     47 H14         -1.0880    -3.2710    -2.5490 hc         1 8VM       0.038367
     48 H15          0.6710    -3.2190    -2.4450 hc         1 8VM       0.038367
     49 H16         -0.1470    -4.7390    -2.7650 hc         1 8VM       0.038367
     50 H17          8.4200     1.6380     2.1250 hc         1 8VM       0.037144
     51 H18          6.9600     2.6060     2.0840 hc         1 8VM       0.037144
     52 H19          6.8540     0.8490     2.2210 hc         1 8VM       0.037144
     53 H20          8.2480     2.6420    -1.4680 hc         1 8VM       0.037144
     54 H21          7.9280     3.6530    -0.0580 hc         1 8VM       0.037144
     55 H22          9.3000     2.5510    -0.0590 hc         1 8VM       0.037144
     56 H23          7.9960     0.0580    -1.2660 hc         1 8VM       0.037144
     57 H24          9.0840     0.1810     0.1110 hc         1 8VM       0.037144
     58 H25          7.5480    -0.6510     0.2850 hc         1 8VM       0.037144
     59 H26          0.3900    -4.1050     1.8530 hc         1 8VM       0.042700
     60 H27         -1.3230    -4.3280     1.6670 hc         1 8VM       0.042700
     61 H28         -1.0800    -4.8560    -0.5360 hc         1 8VM       0.042700
     62 H29          0.6410    -4.6260    -0.4030 hc         1 8VM       0.042700
     63 H30          5.4650    -0.3900     0.1620 h1         1 8VM       0.038200
     64 H31          4.7770     0.8360     1.2320 h1         1 8VM       0.038200
     65 H32          6.0750     1.4580    -1.4560 h1         1 8VM       0.085700
     66 H33         -6.7230     2.4100    -0.1150 hn         1 8VM       0.411000
     67 H34         -3.3280     1.4590     1.2860 hn         1 8VM       0.360500
     68 H35          5.3400     3.1650     0.6570 ho         1 8VM       0.438000
     69 C15         -0.4860    -2.9400     0.2640 c3         1 8VM       0.078600
@<TRIPOS>BOND
     1     1     3 1   
     2     1    29 1   
     3     1    30 2   
     4     2     5 2   
     5     2    33 1   
     6     2    69 1   
     7     3     4 2   
     8     3    33 1   
     9     4     5 1   
    10     4    14 1   
    11     5    34 1   
    12     6     7 ar  
    13     6     9 ar  
    14     6    35 1   
    15     7    11 ar  
    16     7    36 1   
    17     8     9 ar  
    18     8    10 ar  
    19     8    37 1   
    20     9    69 1   
    21    10    11 ar  
    22    10    13 1   
    23    11    32 1   
    24    12    25 1   
    25    12    28 2   
    26    12    29 1   
    27    13    38 1   
    28    13    39 1   
    29    13    40 1   
    30    14    41 1   
    31    14    42 1   
    32    14    43 1   
    33    15    20 1   
    34    15    44 1   
    35    15    45 1   
    36    15    46 1   
    37    16    21 1   
    38    16    47 1   
    39    16    48 1   
    40    16    49 1   
    41    17    24 1   
    42    17    50 1   
    43    17    51 1   
    44    17    52 1   
    45    18    24 1   
    46    18    53 1   
    47    18    54 1   
    48    18    55 1   
    49    19    24 1   
    50    19    56 1   
    51    19    57 1   
    52    19    58 1   
    53    20    59 1   
    54    20    60 1   
    55    20    69 1   
    56    21    61 1   
    57    21    62 1   
    58    21    69 1   
    59    22    23 1   
    60    22    32 1   
    61    22    63 1   
    62    22    64 1   
    63    23    24 1   
    64    23    31 1   
    65    23    65 1   
    66    25    26 1   
    67    25    66 1   
    68    26    27 2   
    69    27    28 1   
    70    29    67 1   
    71    31    68 1   
@<TRIPOS>SUBSTRUCTURE
     1 8VM         1 TEMP              0 ****  ****    0 ROOT
