@<TRIPOS>MOLECULE
8VN
   20    21     1     0     0
SMALL
bcc


@<TRIPOS>ATOM
      1 C1          -1.9210     1.8380    -0.2100 c5         1 8VN       0.126800
      2 C2          -1.1280    -0.3360    -0.3970 c5         1 8VN       0.042500
      3 C3           1.1330     0.7250     0.2010 ce         1 8VN       0.281300
      4 C4          -0.2300     0.3510     0.6740 c5         1 8VN      -0.151000
      5 C5          -0.8270     1.7460     0.8680 c5         1 8VN       0.045100
      6 C6           2.1970    -0.2740    -0.2070 c          1 8VN       0.847300
      7 C7          -1.4800    -1.7980    -0.0620 c          1 8VN       0.951600
      8 O1           0.2560     2.6620     0.6520 os         1 8VN      -0.229300
      9 O3           3.2220     0.1700    -0.7500 o          1 8VN      -0.807300
     10 O4          -1.1780    -2.6730    -0.8910 o          1 8VN      -0.847800
     11 O5          -2.0730    -1.9660     1.0250 o          1 8VN      -0.847800
     12 N1          -2.3440     0.4730    -0.4610 n7         1 8VN      -0.786200
     13 N2           1.3480     1.9790     0.1770 n2         1 8VN      -0.426200
     14 O2           1.9150    -1.4550     0.0640 o          1 8VN      -0.807300
     15 H1          -2.7660     2.4610     0.0830 h1         1 8VN       0.027700
     16 H2          -1.4910     2.2680    -1.1220 h1         1 8VN       0.027700
     17 H3          -0.6300    -0.2900    -1.3710 h1         1 8VN       0.068700
     18 H4          -0.1960    -0.2470     1.5860 hc         1 8VN       0.100700
     19 H5          -1.2250     1.9320     1.8670 h1         1 8VN       0.037700
     20 H8          -2.9430     0.1770     0.3030 hn         1 8VN       0.346800
@<TRIPOS>BOND
     1     1     5 1   
     2     1    12 1   
     3     1    15 1   
     4     1    16 1   
     5     2     4 1   
     6     2     7 1   
     7     2    12 1   
     8     2    17 1   
     9     3     4 1   
    10     3     6 1   
    11     3    13 2   
    12     4     5 1   
    13     4    18 1   
    14     5     8 1   
    15     5    19 1   
    16     6     9 1   
    17     6    14 1   
    18     7    10 1   
    19     7    11 1   
    20     8    13 1   
    21    12    20 1   
@<TRIPOS>SUBSTRUCTURE
     1 8VN         1 TEMP              0 ****  ****    0 ROOT
