@<TRIPOS>MOLECULE
8VN
   20    21     1     0     0
SMALL
No Charge or Current Charge


@<TRIPOS>ATOM
      1 C1          -2.1410     1.9070     0.0190 c5         1 8VN       0.126800
      2 C2          -1.2190    -0.1900    -0.4980 c5         1 8VN       0.042500
      3 C3           1.0940     0.5480     0.0060 ce         1 8VN       0.281300
      4 C4          -0.2930     0.3930     0.6140 c5         1 8VN      -0.151000
      5 C5          -0.7130     1.8840     0.6680 c5         1 8VN       0.068300
      6 C6           2.1600    -0.5050     0.3410 c          1 8VN       0.636700
      7 C7          -1.2050    -1.7800    -0.4630 c          1 8VN       0.741000
      8 O1           0.2170     2.5840    -0.2050 os         1 8VN      -0.351000
      9 O3           3.3180    -0.3120    -0.0210 o          1 8VN      -0.702000
     10 O4          -0.7350    -2.3870    -1.4180 o          1 8VN      -0.742500
     11 O5          -1.7520    -2.3690     0.4640 o          1 8VN      -0.742500
     12 N1          -2.5240     0.4840    -0.1710 n7         1 8VN      -0.841400
     13 N2           1.3160     1.7400    -0.4620 n2         1 8VN      -0.327700
     14 O2           1.8420    -1.5130     0.9630 o          1 8VN      -0.702000
     15 H1          -2.8700     2.4290     0.6550 h1         1 8VN       0.027700
     16 H2          -2.1190     2.4230    -0.9510 h1         1 8VN       0.027700
     17 H3          -0.8840     0.1190    -1.4990 h1         1 8VN       0.068700
     18 H4          -0.3360    -0.1240     1.5780 hc         1 8VN       0.100700
     19 H5          -0.6730     2.3070     1.6810 h1         1 8VN       0.037700
     20 H8          -2.8450     0.1040     0.7290 hn         1 8VN       0.402000
@<TRIPOS>BOND
     1     1     5 1   
     2     1    12 1   
     3     1    15 1   
     4     1    16 1   
     5     2     4 1   
     6     2     7 1   
     7     2    12 1   
     8     2    17 1   
     9     3     4 1   
    10     3     6 1   
    11     3    13 2   
    12     4     5 1   
    13     4    18 1   
    14     5     8 1   
    15     5    19 1   
    16     6     9 1   
    17     6    14 1   
    18     7    10 1   
    19     7    11 1   
    20     8    13 1   
    21    12    20 1   
@<TRIPOS>SUBSTRUCTURE
     1 8VN         1 TEMP              0 ****  ****    0 ROOT
