@<TRIPOS>MOLECULE
8VO
   95    99     1     0     0
SMALL
bcc


@<TRIPOS>ATOM
      1 C36          1.9110     1.7910     0.2120 ca         1 8VO      -0.117500
      2 C35          3.7330    -1.7170    -0.9190 c3         1 8VO       0.046700
      3 C38          4.0770    -3.1430    -1.3320 c3         1 8VO      -0.004300
      4 C34          2.3000    -1.6790    -0.3830 c          1 8VO       0.652100
      5 C33          0.6370     1.2850     0.4500 ca         1 8VO      -0.085300
      6 C32         -7.2500     4.0200    -2.4660 ca         1 8VO      -0.124000
      7 C31         -6.1690     3.1830    -2.7220 ca         1 8VO      -0.129000
      8 C23         -7.9480     2.8690     1.1350 c5         1 8VO      -0.066100
      9 C24         -7.4440     3.1110    -0.2620 ca         1 8VO      -0.079300
     10 C14         -4.0940    -1.7440     0.1940 c5         1 8VO       0.024700
     11 C15         -4.3190    -2.6610     1.4230 c5         1 8VO       0.057100
     12 C16         -6.0580     1.4430     0.6950 c5         1 8VO       0.159000
     13 S01         -3.3320    -4.1400     0.9730 ss         1 8VO      -0.328200
     14 S02          5.7870    -3.2020    -1.9350 ss         1 8VO      -0.310200
     15 O03         -8.1970     0.4500     0.9360 oh         1 8VO      -0.598800
     16 O05         -0.7290    -0.9020    -3.1080 oh         1 8VO      -0.590800
     17 O07          2.0180    -2.2090     0.6780 o          1 8VO      -0.610100
     18 N09         -2.7410    -1.9630    -0.2850 n          1 8VO      -0.453800
     19 N10         -5.5900     0.1160     0.4120 ns         1 8VO      -0.546900
     20 N11          1.4200    -1.0450    -1.1730 ns         1 8VO      -0.554900
     21 N12          4.6340    -1.2370     0.0990 ns         1 8VO      -0.565900
     22 C17         -2.0300    -3.0640     0.3400 c5         1 8VO       0.189100
     23 C19         -7.3910     1.4750     1.4660 c5         1 8VO       0.132100
     24 C20         -5.7800    -3.0630     1.5630 c3         1 8VO      -0.085600
     25 C22         -6.3610     2.2810    -0.5230 ca         1 8VO      -0.112300
     26 C26         -0.8900    -1.4570    -1.8390 c3         1 8VO       0.068100
     27 C27          0.0460    -0.7940    -0.8100 c3         1 8VO       0.087700
     28 C28         -5.7130     2.3020    -1.7450 ca         1 8VO      -0.093000
     29 C29         -7.8970     3.9890    -1.2330 ca         1 8VO      -0.116000
     30 C30         -0.1970     0.7150    -0.6620 c3         1 8VO      -0.052100
     31 C37          0.1600     1.2680     1.7590 ca         1 8VO      -0.117500
     32 C39          2.6910     2.2710     1.2560 ca         1 8VO      -0.132000
     33 C40          0.9360     1.7470     2.8050 ca         1 8VO      -0.132000
     34 C41          2.2060     2.2510     2.5560 ca         1 8VO      -0.133000
     35 C42          5.1930    -0.0090     0.0870 c          1 8VO       0.677100
     36 C43          5.9890     0.3270     1.3370 c3         1 8VO      -0.101100
     37 C44          5.7920    -4.8720    -2.6220 c3         1 8VO      -0.015000
     38 C45          7.1410     1.2450     1.0540 ca         1 8VO      -0.118300
     39 C46          8.3860     0.7400     0.6930 ca         1 8VO      -0.070500
     40 C47          6.9980     2.6270     1.1070 ca         1 8VO      -0.070500
     41 C48          9.4500     1.5760     0.3950 ca         1 8VO      -0.194500
     42 C49          8.0520     3.4780     0.8150 ca         1 8VO      -0.194500
     43 C50          9.3020     2.9670     0.4500 ca         1 8VO       0.152600
     44 H1           2.3040     1.8110    -0.7970 ha         1 8VO       0.139000
     45 H2           3.8370    -1.0620    -1.7840 h1         1 8VO       0.100700
     46 H3           3.9530    -3.8310    -0.4930 h1         1 8VO       0.071200
     47 H4           3.4030    -3.4600    -2.1310 h1         1 8VO       0.071200
     48 H6          -5.6840     3.2120    -3.6900 ha         1 8VO       0.133000
     49 H7          -7.5300     3.6090     1.8240 hc         1 8VO       0.059700
     50 H8          -9.0340     2.9220     1.2330 hc         1 8VO       0.059700
     51 H9          -3.8670    -2.8260     3.5170 hc         1 8VO       0.053367
     52 H10         -2.7670    -1.7390     2.6690 hc         1 8VO       0.053367
     53 H11         -4.4060    -1.2210     3.0440 hc         1 8VO       0.053367
     54 H12         -4.8020    -2.0390    -0.5890 h1         1 8VO       0.083700
     55 H13         -5.2990     1.9450     1.3010 h1         1 8VO       0.094700
     56 H14         -8.9970     0.3840     1.4650 ho         1 8VO       0.407000
     57 H15         -1.4660    -0.2900    -3.2510 ho         1 8VO       0.437000
     58 H16         -6.2490    -0.5180    -0.0130 hn         1 8VO       0.332500
     59 H17          1.7580    -0.6090    -2.0170 hn         1 8VO       0.329500
     60 H18          4.7500    -1.8140     0.9180 hn         1 8VO       0.327500
     61 H19         11.1070     3.4180    -0.3590 hn         1 8VO       0.389800
     62 H20         10.1300     4.7390    -0.0890 hn         1 8VO       0.389800
     63 H21         -1.3840    -2.7250     1.1520 h2         1 8VO       0.087200
     64 H22         -1.4270    -3.6220    -0.3730 h2         1 8VO       0.087200
     65 H23         -7.2310     1.3390     2.5410 h1         1 8VO       0.045700
     66 H24         -6.3930    -2.1960     1.8150 hc         1 8VO       0.053367
     67 H25         -6.1700    -3.5040     0.6440 hc         1 8VO       0.053367
     68 H26         -5.9020    -3.7890     2.3670 hc         1 8VO       0.053367
     69 H27         -0.6210    -2.5180    -1.8960 h1         1 8VO       0.080700
     70 H28         -0.1100    -1.2630     0.1620 h1         1 8VO       0.089700
     71 H29         -4.8780     1.6390    -1.9420 ha         1 8VO       0.153000
     72 H30         -8.7450     4.6370    -1.0480 ha         1 8VO       0.131000
     73 H31         -1.2520     0.8890    -0.4470 hc         1 8VO       0.069200
     74 H32          0.0300     1.2170    -1.6050 hc         1 8VO       0.069200
     75 H33         -0.8340     0.8810     1.9570 ha         1 8VO       0.139000
     76 H34          3.6770     2.6640     1.0440 ha         1 8VO       0.130500
     77 H35          0.5470     1.7300     3.8150 ha         1 8VO       0.130500
     78 H36          2.8110     2.6300     3.3710 ha         1 8VO       0.126000
     79 H37          5.2890     0.7990     2.0340 hc         1 8VO       0.064700
     80 H38          6.3330    -0.5870     1.8290 hc         1 8VO       0.064700
     81 H39          5.5990    -5.6160    -1.8510 h1         1 8VO       0.060700
     82 H40          5.0580    -4.9770    -3.4190 h1         1 8VO       0.060700
     83 H41          6.7830    -5.0500    -3.0350 h1         1 8VO       0.060700
     84 H42          8.5350    -0.3330     0.6390 ha         1 8VO       0.127000
     85 H43          6.0450     3.0590     1.3910 ha         1 8VO       0.127000
     86 H44         10.4060     1.1490     0.1160 ha         1 8VO       0.129000
     87 H45          7.9050     4.5500     0.8700 ha         1 8VO       0.129000
     88 C25         -2.3410    -1.3070    -1.3890 c          1 8VO       0.647100
     89 O06         -3.0840    -0.5560    -2.0050 o          1 8VO      -0.608100
     90 C18         -4.3130    -0.2720     0.5440 c          1 8VO       0.681100
     91 C21         -3.8010    -2.0740     2.7320 c3         1 8VO      -0.085600
     92 O04         -3.4150     0.4410     0.9560 o          1 8VO      -0.598100
     93 H5          -7.5980     4.6960    -3.2360 ha         1 8VO       0.130000
     94 O08          5.0630     0.7770    -0.8340 o          1 8VO      -0.596100
     95 N13         10.3710     3.8070     0.2090 nv         1 8VO      -0.821200
@<TRIPOS>BOND
     1     1     5 ar  
     2     1    32 ar  
     3     1    44 1   
     4     2     3 1   
     5     2     4 1   
     6     2    21 1   
     7     2    45 1   
     8     3    14 1   
     9     3    46 1   
    10     3    47 1   
    11     4    17 2   
    12     4    20 1   
    13     5    30 1   
    14     5    31 ar  
    15     6     7 ar  
    16     6    29 ar  
    17     6    93 1   
    18     7    28 ar  
    19     7    48 1   
    20     8     9 1   
    21     8    23 1   
    22     8    49 1   
    23     8    50 1   
    24     9    25 ar  
    25     9    29 ar  
    26    10    11 1   
    27    10    18 1   
    28    10    54 1   
    29    10    90 1   
    30    11    13 1   
    31    11    24 1   
    32    11    91 1   
    33    12    19 1   
    34    12    23 1   
    35    12    25 1   
    36    12    55 1   
    37    13    22 1   
    38    14    37 1   
    39    15    23 1   
    40    15    56 1   
    41    16    26 1   
    42    16    57 1   
    43    18    22 1   
    44    18    88 1   
    45    19    58 1   
    46    19    90 1   
    47    20    27 1   
    48    20    59 1   
    49    21    35 1   
    50    21    60 1   
    51    22    63 1   
    52    22    64 1   
    53    23    65 1   
    54    24    66 1   
    55    24    67 1   
    56    24    68 1   
    57    25    28 ar  
    58    26    27 1   
    59    26    69 1   
    60    26    88 1   
    61    27    30 1   
    62    27    70 1   
    63    28    71 1   
    64    29    72 1   
    65    30    73 1   
    66    30    74 1   
    67    31    33 ar  
    68    31    75 1   
    69    32    34 ar  
    70    32    76 1   
    71    33    34 ar  
    72    33    77 1   
    73    34    78 1   
    74    35    36 1   
    75    35    94 2   
    76    36    38 1   
    77    36    79 1   
    78    36    80 1   
    79    37    81 1   
    80    37    82 1   
    81    37    83 1   
    82    38    39 ar  
    83    38    40 ar  
    84    39    41 ar  
    85    39    84 1   
    86    40    42 ar  
    87    40    85 1   
    88    41    43 ar  
    89    41    86 1   
    90    42    43 ar  
    91    42    87 1   
    92    43    95 1   
    93    51    91 1   
    94    52    91 1   
    95    53    91 1   
    96    61    95 1   
    97    62    95 1   
    98    88    89 2   
    99    90    92 2   
@<TRIPOS>SUBSTRUCTURE
     1 8VO         1 TEMP              0 ****  ****    0 ROOT
