@<TRIPOS>MOLECULE
8VO
   95    99     1     0     0
SMALL
No Charge or Current Charge


@<TRIPOS>ATOM
      1 C36          1.1090     3.2390     0.1270 ca         1 8VO      -0.099500
      2 C35          3.8340     0.0830    -0.7090 c3         1 8VO       0.046700
      3 C38          4.2240    -1.0420    -1.6990 c3         1 8VO       0.043600
      4 C34          2.3930    -0.1400    -0.1780 c          1 8VO       0.585100
      5 C33          0.0380     2.3700     0.4160 ca         1 8VO      -0.085300
      6 C32         -8.2820     2.7230    -2.8430 ca         1 8VO      -0.106000
      7 C31         -6.8980     2.4510    -2.8030 ca         1 8VO      -0.111000
      8 C23         -9.2390     1.2660     0.5970 c5         1 8VO      -0.066100
      9 C24         -8.5280     1.7190    -0.6520 ca         1 8VO      -0.079300
     10 C14         -3.9440    -1.7390     0.4000 c5         1 8VO       0.024700
     11 C15         -3.8390    -2.4900     1.7780 c5         1 8VO       0.105000
     12 C16         -6.7670     0.7780     0.6740 c5         1 8VO       0.159000
     13 S01         -2.6770    -3.8640     1.3880 ss         1 8VO      -0.424000
     14 S02          5.8980    -0.7630    -2.4460 ss         1 8VO      -0.406000
     15 O03         -8.4930    -1.0910     0.8260 oh         1 8VO      -0.661000
     16 O05         -0.7000    -0.2510    -3.1380 oh         1 8VO      -0.653000
     17 O07          2.1510    -0.5480     0.9520 o          1 8VO      -0.610100
     18 N09         -2.5410    -1.6890    -0.1400 n          1 8VO      -0.386800
     19 N10         -5.9550    -0.4290     0.5030 ns         1 8VO      -0.479900
     20 N11          1.3890     0.1540    -1.0780 ns         1 8VO      -0.487900
     21 N12          4.7960     0.1560     0.4180 ns         1 8VO      -0.498900
     22 C17         -1.6140    -2.7040     0.4200 c5         1 8VO       0.237000
     23 C19         -8.1840     0.2620     1.2130 c5         1 8VO       0.155300
     24 C20         -5.1760    -3.1240     2.2340 c3         1 8VO      -0.085600
     25 C22         -7.1740     1.4530    -0.6110 ca         1 8VO      -0.112300
     26 C26         -0.7910    -0.8030    -1.7970 c3         1 8VO       0.091300
     27 C27         -0.0500     0.1170    -0.7820 c3         1 8VO       0.087700
     28 C28         -6.3350     1.8140    -1.6800 ca         1 8VO      -0.075000
     29 C29         -9.1060     2.3580    -1.7610 ca         1 8VO      -0.098000
     30 C30         -0.6210     1.5570    -0.6920 c3         1 8VO      -0.052100
     31 C37         -0.4120     2.2430     1.7450 ca         1 8VO      -0.099500
     32 C39          1.7260     3.9700     1.1580 ca         1 8VO      -0.114000
     33 C40          0.2040     2.9760     2.7750 ca         1 8VO      -0.114000
     34 C41          1.2730     3.8390     2.4810 ca         1 8VO      -0.115000
     35 C42          5.7640     1.1240     0.5740 c          1 8VO       0.610100
     36 C43          6.6980     0.9200     1.7740 c3         1 8VO      -0.101100
     37 C44          6.0770    -2.3230    -3.4230 c3         1 8VO       0.032900
     38 C45          8.0590     0.3920     1.3240 ca         1 8VO      -0.118300
     39 C46          8.1830    -0.9270     0.8460 ca         1 8VO      -0.052500
     40 C47          9.1990     1.2180     1.3760 ca         1 8VO      -0.052500
     41 C48          9.4340    -1.4130     0.4260 ca         1 8VO      -0.176500
     42 C49         10.4480     0.7270     0.9550 ca         1 8VO      -0.176500
     43 C50         10.5650    -0.5870     0.4810 ca         1 8VO       0.291000
     44 H1           1.4690     3.3440    -0.8940 ha         1 8VO       0.121000
     45 H2           3.8290     1.0400    -1.2460 h1         1 8VO       0.100700
     46 H3           4.2240    -2.0060    -1.1740 h1         1 8VO       0.071200
     47 H4           3.4850    -1.0970    -2.5090 h1         1 8VO       0.071200
     48 H6          -6.2630     2.7350    -3.6390 ha         1 8VO       0.115000
     49 H7          -9.4230     2.1090     1.2720 hc         1 8VO       0.059700
     50 H8         -10.2060     0.7940     0.3930 hc         1 8VO       0.059700
     51 H9          -3.0370    -2.2930     3.8190 hc         1 8VO       0.053367
     52 H10         -2.3180    -1.1540     2.6740 hc         1 8VO       0.053367
     53 H11         -3.9530    -0.8810     3.2850 hc         1 8VO       0.053367
     54 H12         -4.5760    -2.3020    -0.2980 h1         1 8VO       0.083700
     55 H13         -6.3310     1.5080     1.3710 h1         1 8VO       0.094700
     56 H14         -9.3950    -1.2850     1.1620 ho         1 8VO       0.446000
     57 H15         -1.6300    -0.0920    -3.4280 ho         1 8VO       0.476000
     58 H16         -6.3730    -1.3360     0.3320 hn         1 8VO       0.332500
     59 H17          1.6690     0.4650    -2.0020 hn         1 8VO       0.329500
     60 H18          4.7570    -0.5680     1.1270 hn         1 8VO       0.327500
     61 H19         11.8400    -1.9610    -0.4030 hn         1 8VO       0.445000
     62 H20         12.5700    -0.4250    -0.0230 hn         1 8VO       0.445000
     63 H21         -0.9090    -2.1860     1.0820 h2         1 8VO       0.087200
     64 H22         -1.1190    -3.2360    -0.4010 h2         1 8VO       0.087200
     65 H23         -8.2050     0.3240     2.3100 h1         1 8VO       0.045700
     66 H24         -5.9130    -2.3610     2.5110 hc         1 8VO       0.053367
     67 H25         -5.6150    -3.7420     1.4410 hc         1 8VO       0.053367
     68 H26         -5.0300    -3.7690     3.1090 hc         1 8VO       0.053367
     69 H27         -0.2940    -1.7820    -1.7800 h1         1 8VO       0.080700
     70 H28         -0.1780    -0.3270     0.2130 h1         1 8VO       0.089700
     71 H29         -5.2680     1.6040    -1.6430 ha         1 8VO       0.135000
     72 H30        -10.1730     2.5670    -1.7850 ha         1 8VO       0.113000
     73 H31         -1.7010     1.5130    -0.5150 hc         1 8VO       0.069200
     74 H32         -0.4950     2.0620    -1.6580 hc         1 8VO       0.069200
     75 H33         -1.2370     1.5740     1.9800 ha         1 8VO       0.121000
     76 H34          2.5550     4.6370     0.9300 ha         1 8VO       0.112500
     77 H35         -0.1470     2.8740     3.7990 ha         1 8VO       0.112500
     78 H36          1.7510     4.4050     3.2780 ha         1 8VO       0.108000
     79 H37          6.8190     1.8830     2.2840 hc         1 8VO       0.064700
     80 H38          6.2540     0.1990     2.4710 hc         1 8VO       0.064700
     81 H39          6.0330    -3.1910    -2.7520 h1         1 8VO       0.060700
     82 H40          5.2680    -2.3960    -4.1610 h1         1 8VO       0.060700
     83 H41          7.0410    -2.3230    -3.9470 h1         1 8VO       0.060700
     84 H42          7.3120    -1.5760     0.7960 ha         1 8VO       0.109000
     85 H43          9.1210     2.2410     1.7400 ha         1 8VO       0.109000
     86 H44          9.5180    -2.4320     0.0580 ha         1 8VO       0.111000
     87 H45         11.3210     1.3720     1.0000 ha         1 8VO       0.111000
     88 C25         -2.2740    -1.0550    -1.3740 c          1 8VO       0.580100
     89 O06         -3.1920    -0.6470    -2.0800 o          1 8VO      -0.608100
     90 C18         -4.5850    -0.3310     0.6190 c          1 8VO       0.614100
     91 C21         -3.2520    -1.6560     2.9520 c3         1 8VO      -0.085600
     92 O04         -3.9950     0.7210     0.8360 o          1 8VO      -0.598100
     93 H5          -8.7130     3.2170    -3.7110 ha         1 8VO       0.112000
     94 O08          5.8690     2.0770    -0.1870 o          1 8VO      -0.596100
     95 N13         11.7810    -1.0620     0.0720 nv         1 8VO      -1.070000
@<TRIPOS>BOND
     1     1     5 ar  
     2     1    32 ar  
     3     1    44 1   
     4     2     3 1   
     5     2     4 1   
     6     2    21 1   
     7     2    45 1   
     8     3    14 1   
     9     3    46 1   
    10     3    47 1   
    11     4    17 2   
    12     4    20 1   
    13     5    30 1   
    14     5    31 ar  
    15     6     7 ar  
    16     6    29 ar  
    17     6    93 1   
    18     7    28 ar  
    19     7    48 1   
    20     8     9 1   
    21     8    23 1   
    22     8    49 1   
    23     8    50 1   
    24     9    25 ar  
    25     9    29 ar  
    26    10    11 1   
    27    10    18 1   
    28    10    54 1   
    29    10    90 1   
    30    11    13 1   
    31    11    24 1   
    32    11    91 1   
    33    12    19 1   
    34    12    23 1   
    35    12    25 1   
    36    12    55 1   
    37    13    22 1   
    38    14    37 1   
    39    15    23 1   
    40    15    56 1   
    41    16    26 1   
    42    16    57 1   
    43    18    22 1   
    44    18    88 1   
    45    19    58 1   
    46    19    90 1   
    47    20    27 1   
    48    20    59 1   
    49    21    35 1   
    50    21    60 1   
    51    22    63 1   
    52    22    64 1   
    53    23    65 1   
    54    24    66 1   
    55    24    67 1   
    56    24    68 1   
    57    25    28 ar  
    58    26    27 1   
    59    26    69 1   
    60    26    88 1   
    61    27    30 1   
    62    27    70 1   
    63    28    71 1   
    64    29    72 1   
    65    30    73 1   
    66    30    74 1   
    67    31    33 ar  
    68    31    75 1   
    69    32    34 ar  
    70    32    76 1   
    71    33    34 ar  
    72    33    77 1   
    73    34    78 1   
    74    35    36 1   
    75    35    94 2   
    76    36    38 1   
    77    36    79 1   
    78    36    80 1   
    79    37    81 1   
    80    37    82 1   
    81    37    83 1   
    82    38    39 ar  
    83    38    40 ar  
    84    39    41 ar  
    85    39    84 1   
    86    40    42 ar  
    87    40    85 1   
    88    41    43 ar  
    89    41    86 1   
    90    42    43 ar  
    91    42    87 1   
    92    43    95 1   
    93    51    91 1   
    94    52    91 1   
    95    53    91 1   
    96    61    95 1   
    97    62    95 1   
    98    88    89 2   
    99    90    92 2   
@<TRIPOS>SUBSTRUCTURE
     1 8VO         1 TEMP              0 ****  ****    0 ROOT
