@<TRIPOS>MOLECULE
8VP
   56    60     1     0     0
SMALL
abcg2


@<TRIPOS>ATOM
      1 N17        124.4990   116.8860   146.1820 nh         1 8VP      -0.785300
      2 C22        123.9060   113.6710   144.8710 ca         1 8VP       0.153400
      3 C19        125.6080   117.1240   148.3680 c6         1 8VP      -0.083400
      4 C18        125.7630   116.7490   146.8920 c6         1 8VP       0.235300
      5 C10        125.5370   120.2840   151.8290 cc         1 8VP      -0.240000
      6 C16        123.8990   118.2210   146.1630 c6         1 8VP       0.235300
      7 C15        124.5340   119.1120   147.2290 c6         1 8VP      -0.083400
      8 C14        124.6590   118.3440   148.5490 c6         1 8VP      -0.091000
      9 C12        125.1210   119.2190   149.6720 cc         1 8VP       0.444700
     10 C24        122.2580   115.1450   144.1110 ca         1 8VP       0.153400
     11 C20        123.9290   115.8680   145.4890 ca         1 8VP       0.382900
     12 C23        122.7550   113.8470   144.1050 ca         1 8VP      -0.254300
     13 C1         130.9460   121.2660   150.2870 ca         1 8VP      -0.161500
     14 C2         132.1310   121.9740   150.2170 ca         1 8VP      -0.058500
     15 C3         132.1230   123.3480   150.4470 ca         1 8VP      -0.048200
     16 C4         130.9430   124.0080   150.7560 ca         1 8VP      -0.058500
     17 C5         129.7520   123.2960   150.8400 ca         1 8VP      -0.161500
     18 C6         129.7490   121.9200   150.5990 ca         1 8VP       0.158100
     19 C9         126.3200   120.7110   150.7990 cd         1 8VP       0.272300
     20 C27        122.7640   112.5960   141.9090 c3         1 8VP      -0.089100
     21 C29        134.3500   123.9660   149.4820 cc         1 8VP       0.394400
     22 N13        126.0740   120.1020   149.5880 nd         1 8VP      -0.627000
     23 N21        124.4950   114.6430   145.5560 nb         1 8VP      -0.246500
     24 N25        122.8170   116.1510   144.7780 nb         1 8VP      -0.246500
     25 N28        133.3390   124.0820   150.3580 na         1 8VP       0.012500
     26 N30        135.2690   124.8600   149.7760 nd         1 8VP      -0.386000
     27 N31        134.7960   125.5330   150.8540 nd         1 8VP      -0.045000
     28 N32        133.6460   125.0780   151.2140 nc         1 8VP      -0.198800
     29 O7         128.6440   121.1370   150.6490 os         1 8VP      -0.335100
     30 S11        124.4420   119.0830   151.2700 ss         1 8VP      -0.027400
     31 H1         124.3690   112.6900   144.9380 h4         1 8VP       0.018600
     32 H2         125.2140   116.2770   148.9320 hc         1 8VP       0.059450
     33 H3         126.5960   117.3550   148.7700 hc         1 8VP       0.059450
     34 H4         126.1090   115.7270   146.7910 h1         1 8VP       0.060450
     35 H5         126.5070   117.3980   146.4180 h1         1 8VP       0.060450
     36 H6         125.5460   120.6140   152.8550 h4         1 8VP       0.164000
     37 H7         124.0040   118.6770   145.1730 h1         1 8VP       0.060450
     38 H8         122.8300   118.1230   146.3580 h1         1 8VP       0.060450
     39 H9         125.5160   119.4650   146.9140 hc         1 8VP       0.059450
     40 H10        123.9050   119.9940   147.3600 hc         1 8VP       0.059450
     41 H11        123.6660   117.9670   148.8060 hc         1 8VP       0.062700
     42 H12        121.3590   115.3850   143.5480 h4         1 8VP       0.018600
     43 H13        121.0640   112.9210   143.2000 hc         1 8VP       0.043700
     44 H14        122.2460   111.7940   143.8440 hc         1 8VP       0.043700
     45 H16        133.0570   121.4620   149.9950 ha         1 8VP       0.133500
     46 H17        130.9480   125.0750   150.9250 ha         1 8VP       0.133500
     47 H18        128.8430   123.8230   151.0840 ha         1 8VP       0.133000
     48 H21        122.2950   111.7830   141.3500 hc         1 8VP       0.035367
     49 H22        122.6430   113.5190   141.3360 hc         1 8VP       0.035367
     50 H23        123.8330   112.3860   141.9850 hc         1 8VP       0.035367
     51 H24        134.3730   123.2570   148.6720 h5         1 8VP       0.075100
     52 C8         127.3710   121.7610   150.8930 c3         1 8VP       0.142300
     53 C26        122.1370   112.7370   143.3010 c3         1 8VP      -0.009100
     54 H15        130.9310   120.1990   150.1110 ha         1 8VP       0.133000
     55 H19        127.2020   122.5360   150.1400 h1         1 8VP       0.052700
     56 H20        127.3640   122.2200   151.8840 h1         1 8VP       0.052700
@<TRIPOS>BOND
     1     1     4 1   
     2     1     6 1   
     3     1    11 1   
     4     2    12 ar  
     5     2    23 ar  
     6     2    31 1   
     7     3     4 1   
     8     3     8 1   
     9     3    32 1   
    10     3    33 1   
    11     4    34 1   
    12     4    35 1   
    13     5    19 2   
    14     5    30 1   
    15     5    36 1   
    16     6     7 1   
    17     6    37 1   
    18     6    38 1   
    19     7     8 1   
    20     7    39 1   
    21     7    40 1   
    22     8     9 1   
    23     8    41 1   
    24     9    22 2   
    25     9    30 1   
    26    10    12 ar  
    27    10    24 ar  
    28    10    42 1   
    29    11    23 ar  
    30    11    24 ar  
    31    12    53 1   
    32    13    14 ar  
    33    13    18 ar  
    34    13    54 1   
    35    14    15 ar  
    36    14    45 1   
    37    15    16 ar  
    38    15    25 1   
    39    16    17 ar  
    40    16    46 1   
    41    17    18 ar  
    42    17    47 1   
    43    18    29 1   
    44    19    22 1   
    45    19    52 1   
    46    20    48 1   
    47    20    49 1   
    48    20    50 1   
    49    20    53 1   
    50    21    25 1   
    51    21    26 2   
    52    21    51 1   
    53    25    28 1   
    54    26    27 1   
    55    27    28 2   
    56    29    52 1   
    57    43    53 1   
    58    44    53 1   
    59    52    55 1   
    60    52    56 1   
@<TRIPOS>SUBSTRUCTURE
     1 8VP         1 TEMP              0 ****  ****    0 ROOT
