@<TRIPOS>MOLECULE
8VP
   56    60     1     0     0
SMALL
No Charge or Current Charge


@<TRIPOS>ATOM
      1 N17        123.8470   116.4030   147.1820 nh         1 8VP      -0.785300
      2 C22        124.9510   114.7030   144.2180 ca         1 8VP       0.153400
      3 C19        124.8360   116.6860   149.4820 c6         1 8VP      -0.083400
      4 C18        125.1200   116.5640   147.9640 c6         1 8VP       0.235300
      5 C10        125.6530   121.0680   151.3600 cc         1 8VP      -0.240000
      6 C16        122.6220   117.0420   147.7710 c6         1 8VP       0.235300
      7 C15        122.9860   118.2720   148.6380 c6         1 8VP      -0.083400
      8 C14        123.9260   117.9060   149.8260 c6         1 8VP      -0.091000
      9 C12        124.7380   119.1150   150.2470 cc         1 8VP       0.444700
     10 C24        122.5550   114.7540   144.2660 ca         1 8VP       0.153400
     11 C20        123.8080   115.7000   145.9480 ca         1 8VP       0.382900
     12 C23        123.7320   114.3650   143.6040 ca         1 8VP      -0.254300
     13 C1         130.7950   121.9320   151.3020 ca         1 8VP      -0.161500
     14 C2         132.0580   122.5140   151.0950 ca         1 8VP      -0.058500
     15 C3         132.3460   123.1750   149.8820 ca         1 8VP      -0.048200
     16 C4         131.3500   123.2430   148.8840 ca         1 8VP      -0.058500
     17 C5         130.0870   122.6590   149.0940 ca         1 8VP      -0.161500
     18 C6         129.8060   121.9990   150.3090 ca         1 8VP       0.158100
     19 C9         126.3070   120.7060   150.2060 cd         1 8VP       0.272300
     20 C27        123.4500   114.5600   141.0890 c3         1 8VP      -0.089100
     21 C29        134.7970   123.2410   150.0870 cc         1 8VP       0.394400
     22 N13        125.7780   119.5910   149.5690 nd         1 8VP      -0.627000
     23 N21        124.9910   115.3690   145.3870 nb         1 8VP      -0.246500
     24 N25        122.5900   115.4200   145.4350 nb         1 8VP      -0.246500
     25 N28        133.6020   123.7540   149.6680 na         1 8VP       0.012500
     26 N30        135.7080   124.1310   149.7330 nd         1 8VP      -0.386000
     27 N31        135.0310   125.1700   149.1170 nd         1 8VP      -0.045000
     28 N32        133.7390   124.9620   149.0800 nc         1 8VP      -0.198800
     29 O7         128.5870   121.4090   150.5720 os         1 8VP      -0.335100
     30 S11        124.3270   119.9970   151.6990 ss         1 8VP      -0.027400
     31 H1         125.9080   114.4410   143.7700 h4         1 8VP       0.018600
     32 H2         124.3450   115.7620   149.8160 hc         1 8VP       0.059450
     33 H3         125.7820   116.7370   150.0380 hc         1 8VP       0.059450
     34 H4         125.7780   115.6940   147.8190 h1         1 8VP       0.060450
     35 H5         125.6700   117.4510   147.6170 h1         1 8VP       0.060450
     36 H6         125.8700   121.8910   152.0280 h4         1 8VP       0.164000
     37 H7         121.9420   117.3850   146.9770 h1         1 8VP       0.060450
     38 H8         122.0690   116.3120   148.3820 h1         1 8VP       0.060450
     39 H9         123.4670   119.0170   147.9880 hc         1 8VP       0.059450
     40 H10        122.0710   118.7470   149.0160 hc         1 8VP       0.059450
     41 H11        123.2950   117.6020   150.6730 hc         1 8VP       0.062700
     42 H12        121.5710   114.5320   143.8560 h4         1 8VP       0.018600
     43 H13        122.8910   112.8610   142.3010 hc         1 8VP       0.043700
     44 H14        124.6250   113.0680   142.1190 hc         1 8VP       0.043700
     45 H16        132.8040   122.4560   151.8850 ha         1 8VP       0.133500
     46 H17        131.5540   123.7450   147.9400 ha         1 8VP       0.133500
     47 H18        129.3450   122.7290   148.3040 ha         1 8VP       0.133000
     48 H21        123.4270   113.9940   140.1500 hc         1 8VP       0.035367
     49 H22        122.4950   115.0870   141.1970 hc         1 8VP       0.035367
     50 H23        124.2510   115.3060   141.0220 hc         1 8VP       0.035367
     51 H24        134.9290   122.2930   150.5940 h5         1 8VP       0.075100
     52 C8         127.5030   121.4250   149.6210 c3         1 8VP       0.142300
     53 C26        123.6880   113.6150   142.2800 c3         1 8VP      -0.009100
     54 H15        130.5790   121.4270   152.2400 ha         1 8VP       0.133000
     55 H19        127.8020   120.9280   148.6880 h1         1 8VP       0.052700
     56 H20        127.2110   122.4560   149.3850 h1         1 8VP       0.052700
@<TRIPOS>BOND
     1     1     4 1   
     2     1     6 1   
     3     1    11 1   
     4     2    12 ar  
     5     2    23 ar  
     6     2    31 1   
     7     3     4 1   
     8     3     8 1   
     9     3    32 1   
    10     3    33 1   
    11     4    34 1   
    12     4    35 1   
    13     5    19 2   
    14     5    30 1   
    15     5    36 1   
    16     6     7 1   
    17     6    37 1   
    18     6    38 1   
    19     7     8 1   
    20     7    39 1   
    21     7    40 1   
    22     8     9 1   
    23     8    41 1   
    24     9    22 2   
    25     9    30 1   
    26    10    12 ar  
    27    10    24 ar  
    28    10    42 1   
    29    11    23 ar  
    30    11    24 ar  
    31    12    53 1   
    32    13    14 ar  
    33    13    18 ar  
    34    13    54 1   
    35    14    15 ar  
    36    14    45 1   
    37    15    16 ar  
    38    15    25 1   
    39    16    17 ar  
    40    16    46 1   
    41    17    18 ar  
    42    17    47 1   
    43    18    29 1   
    44    19    22 1   
    45    19    52 1   
    46    20    48 1   
    47    20    49 1   
    48    20    50 1   
    49    20    53 1   
    50    21    25 1   
    51    21    26 2   
    52    21    51 1   
    53    25    28 1   
    54    26    27 1   
    55    27    28 2   
    56    29    52 1   
    57    43    53 1   
    58    44    53 1   
    59    52    55 1   
    60    52    56 1   
@<TRIPOS>SUBSTRUCTURE
     1 8VP         1 TEMP              0 ****  ****    0 ROOT
