@<TRIPOS>MOLECULE
8VQ
   74    76     1     0     0
SMALL
abcg2


@<TRIPOS>ATOM
      1 C4           2.4530    -2.5710    -1.0130 c6         1 8VQ       0.138300
      2 C3           2.7090    -1.0630    -0.9810 c6         1 8VQ       0.143300
      3 C2           1.6550    -0.3520    -0.1430 c6         1 8VQ       0.126300
      4 C1           0.2650    -0.7640    -0.6310 c6         1 8VQ       0.370300
      5 O35         -5.9550     3.5640     0.7940 o          1 8VQ      -0.595100
      6 C34         -7.9120     2.8000    -0.3490 c3         1 8VQ      -0.180100
      7 N1          -5.8740     1.5200    -0.1690 ns         1 8VQ      -0.503900
      8 C1,         -4.5370     1.2120     0.2010 c6         1 8VQ       0.322700
      9 C2,         -4.3820    -0.2860     0.4760 c6         1 8VQ       0.017700
     10 N2          -5.2300    -0.7190     1.5580 ns         1 8VQ      -0.509900
     11 C36         -6.4420    -1.2910     1.3810 c          1 8VQ       0.607100
     12 C38         -7.2110    -1.5630     2.6470 c3         1 8VQ      -0.181100
     13 O37         -6.8930    -1.5610     0.2780 o          1 8VQ      -0.605100
     14 O5,         -3.6720     1.5770    -0.8470 os         1 8VQ      -0.449000
     15 C5,         -2.3080     1.4280    -0.5160 c6         1 8VQ       0.156300
     16 C6,         -1.4980     2.0140    -1.6540 c3         1 8VQ       0.168600
     17 O6,         -1.7950     3.3860    -1.7530 oh         1 8VQ      -0.702000
     18 C4,         -1.9900    -0.0530    -0.2650 c6         1 8VQ       0.151300
     19 C3,         -2.9210    -0.6100     0.8050 c6         1 8VQ       0.162300
     20 O3,         -2.7130    -1.9890     0.9060 oh         1 8VQ      -0.681000
     21 O1          -0.6620    -0.1750     0.2070 os         1 8VQ      -0.447000
     22 O2           1.8520     1.0340    -0.2660 oh         1 8VQ      -0.723000
     23 O4           2.6750    -3.1650     0.2420 oh         1 8VQ      -0.704000
     24 C5           1.0090    -2.8300    -1.4270 c6         1 8VQ       0.182300
     25 C6           0.6600    -4.3030    -1.4220 c3         1 8VQ       0.174600
     26 O5           0.1130    -2.1520    -0.5710 os         1 8VQ      -0.437000
     27 O3           3.9890    -0.8380    -0.4400 os         1 8VQ      -0.463000
     28 C24          4.8260     0.0610    -1.1380 c3         1 8VQ       0.214900
     29 C25          5.8090     0.6460    -0.1640 ca         1 8VQ      -0.059300
     30 C26          5.3490     1.3580     0.9470 ca         1 8VQ      -0.119000
     31 C27          6.2620     1.8930     1.8370 ca         1 8VQ      -0.079000
     32 C28          7.6330     1.7340     1.6500 ca         1 8VQ      -0.191000
     33 C29          8.0920     1.0260     0.5450 ca         1 8VQ       0.136100
     34 C30          7.1700     0.4820    -0.3550 ca         1 8VQ      -0.133000
     35 O31          9.3910     0.8080     0.2640 os         1 8VQ      -0.344100
     36 C32         10.3670     1.3220     1.1480 c3         1 8VQ       0.149900
     37 H1           3.1060    -3.0090    -1.7820 h1         1 8VQ       0.042700
     38 H2           2.6450    -0.6960    -2.0150 h1         1 8VQ       0.050700
     39 H3           1.7590    -0.6800     0.9000 h1         1 8VQ       0.080700
     40 H4           0.1300    -0.4240    -1.6760 h2         1 8VQ       0.022700
     41 H6          -8.5430     3.2170     0.4340 hc         1 8VQ       0.063033
     42 H7          -7.9340     3.4930    -1.1910 hc         1 8VQ       0.063033
     43 H8          -8.3380     1.8540    -0.6770 hc         1 8VQ       0.063033
     44 H9          -6.3760     0.8430    -0.7240 hn         1 8VQ       0.331500
     45 H10         -4.2860     1.7780     1.1080 h2         1 8VQ       0.067700
     46 H11         -4.6700    -0.8380    -0.4240 h1         1 8VQ       0.107700
     47 H12         -4.9700    -0.4410     2.4930 hn         1 8VQ       0.312500
     48 H13         -8.0240    -0.8390     2.7300 hc         1 8VQ       0.063367
     49 H14         -7.6600    -2.5530     2.5990 hc         1 8VQ       0.063367
     50 H15         -6.6040    -1.4950     3.5480 hc         1 8VQ       0.063367
     51 H16         -2.0810     1.9870     0.4070 h1         1 8VQ       0.059700
     52 H17         -0.4340     1.8510    -1.4530 h1         1 8VQ       0.031200
     53 H18         -1.7420     1.4760    -2.5810 h1         1 8VQ       0.031200
     54 H19         -1.2560     3.7560    -2.4570 ho         1 8VQ       0.503000
     55 H20         -2.1340    -0.6220    -1.1940 h1         1 8VQ       0.080700
     56 H21         -2.6680    -0.1010     1.7510 h1         1 8VQ       0.035700
     57 H22         -3.2580    -2.3210     1.6280 ho         1 8VQ       0.506000
     58 H23          1.3650     1.4750     0.4360 ho         1 8VQ       0.520000
     59 H24          3.5840    -2.9790     0.5020 ho         1 8VQ       0.522000
     60 H25          0.9010    -2.4560    -2.4600 h1         1 8VQ       0.044700
     61 H26          0.6320    -4.6700    -0.3900 h1         1 8VQ       0.038700
     62 H27          1.4660    -4.8440    -1.9360 h1         1 8VQ       0.038700
     63 H28          5.3580    -0.4490    -1.9510 h1         1 8VQ       0.040200
     64 H29          4.2390     0.8650    -1.5910 h1         1 8VQ       0.040200
     65 H30          4.2870     1.4960     1.1030 ha         1 8VQ       0.125000
     66 H31          5.9120     2.4460     2.6990 ha         1 8VQ       0.111000
     67 H32          8.3150     2.1670     2.3700 ha         1 8VQ       0.116000
     68 H33          7.5350    -0.0740    -1.2120 ha         1 8VQ       0.124000
     69 H34         10.3210     2.4120     1.2180 h1         1 8VQ       0.040367
     70 H35         10.2710     0.9010     2.1520 h1         1 8VQ       0.040367
     71 H36         11.3340     1.0380     0.7410 h1         1 8VQ       0.040367
     72 O6          -0.5760    -4.4740    -2.0730 oh         1 8VQ      -0.715000
     73 C33         -6.4960     2.6790     0.1540 c          1 8VQ       0.611100
     74 H5          -0.8160    -5.4030    -2.0160 ho         1 8VQ       0.506000
@<TRIPOS>BOND
     1     1     2 1   
     2     1    23 1   
     3     1    24 1   
     4     1    37 1   
     5     2     3 1   
     6     2    27 1   
     7     2    38 1   
     8     3     4 1   
     9     3    22 1   
    10     3    39 1   
    11     4    21 1   
    12     4    26 1   
    13     4    40 1   
    14     5    73 2   
    15     6    41 1   
    16     6    42 1   
    17     6    43 1   
    18     6    73 1   
    19     7     8 1   
    20     7    44 1   
    21     7    73 1   
    22     8     9 1   
    23     8    14 1   
    24     8    45 1   
    25     9    10 1   
    26     9    19 1   
    27     9    46 1   
    28    10    11 1   
    29    10    47 1   
    30    11    12 1   
    31    11    13 2   
    32    12    48 1   
    33    12    49 1   
    34    12    50 1   
    35    14    15 1   
    36    15    16 1   
    37    15    18 1   
    38    15    51 1   
    39    16    17 1   
    40    16    52 1   
    41    16    53 1   
    42    17    54 1   
    43    18    19 1   
    44    18    21 1   
    45    18    55 1   
    46    19    20 1   
    47    19    56 1   
    48    20    57 1   
    49    22    58 1   
    50    23    59 1   
    51    24    25 1   
    52    24    26 1   
    53    24    60 1   
    54    25    61 1   
    55    25    62 1   
    56    25    72 1   
    57    27    28 1   
    58    28    29 1   
    59    28    63 1   
    60    28    64 1   
    61    29    30 ar  
    62    29    34 ar  
    63    30    31 ar  
    64    30    65 1   
    65    31    32 ar  
    66    31    66 1   
    67    32    33 ar  
    68    32    67 1   
    69    33    34 ar  
    70    33    35 1   
    71    34    68 1   
    72    35    36 1   
    73    36    69 1   
    74    36    70 1   
    75    36    71 1   
    76    72    74 1   
@<TRIPOS>SUBSTRUCTURE
     1 8VQ         1 TEMP              0 ****  ****    0 ROOT
