@<TRIPOS>MOLECULE
8VQ
   74    76     1     0     0
SMALL
No Charge or Current Charge


@<TRIPOS>ATOM
      1 C4           2.6130    -1.9730    -0.6330 c6         1 8VQ       0.138300
      2 C3           2.8120    -0.4500    -0.3500 c6         1 8VQ       0.143300
      3 C2           1.6230     0.1150     0.5160 c6         1 8VQ       0.126300
      4 C1           0.2560    -0.2850    -0.1320 c6         1 8VQ       0.370300
      5 O35         -6.4850     3.1530    -1.2670 o          1 8VQ      -0.595100
      6 C34         -8.2540     1.6570    -1.9340 c3         1 8VQ      -0.180100
      7 N1          -6.2550     0.9500    -0.7380 ns         1 8VQ      -0.503900
      8 C1,         -4.9580     1.0050    -0.0860 c6         1 8VQ       0.322700
      9 C2,         -4.6530    -0.3310     0.6570 c6         1 8VQ       0.017700
     10 N2          -5.6530    -0.6210     1.7210 ns         1 8VQ      -0.509900
     11 C36         -6.8820    -1.2080     1.5180 c          1 8VQ       0.607100
     12 C38         -7.7420    -1.3510     2.7640 c3         1 8VQ      -0.181100
     13 O37         -7.2510    -1.5760     0.4130 o          1 8VQ      -0.605100
     14 O5,         -3.9770     1.2040    -1.1170 os         1 8VQ      -0.449000
     15 C5,         -2.6220     1.3750    -0.6270 c6         1 8VQ       0.156300
     16 C6,         -1.7160     1.7730    -1.8400 c3         1 8VQ       0.168600
     17 O6,         -2.2190     2.8980    -2.5880 oh         1 8VQ      -0.702000
     18 C4,         -2.1700     0.0750     0.1200 c6         1 8VQ       0.151300
     19 C3,         -3.2120    -0.2580     1.2390 c6         1 8VQ       0.162300
     20 O3,         -2.8910    -1.4890     1.9150 oh         1 8VQ      -0.681000
     21 O1          -0.8350     0.1810     0.6920 os         1 8VQ      -0.447000
     22 O2           1.6960     1.5500     0.7130 oh         1 8VQ      -0.723000
     23 O4           2.9120    -2.7130     0.5680 oh         1 8VQ      -0.704000
     24 C5           1.1710    -2.2410    -1.1760 c6         1 8VQ       0.182300
     25 C6           0.8840    -3.7610    -1.4130 c3         1 8VQ       0.174600
     26 O5           0.1780    -1.7120    -0.2650 os         1 8VQ      -0.437000
     27 O3           4.1160    -0.2870     0.2790 os         1 8VQ      -0.463000
     28 C24          4.6500     1.0440     0.4220 c3         1 8VQ       0.214900
     29 C25          6.1310     0.9300     0.7620 ca         1 8VQ      -0.059300
     30 C26          6.5530     0.9050     2.1050 ca         1 8VQ      -0.119000
     31 C27          7.9190     0.8010     2.4180 ca         1 8VQ      -0.079000
     32 C28          8.8740     0.7190     1.3900 ca         1 8VQ      -0.191000
     33 C29          8.4590     0.7410     0.0400 ca         1 8VQ       0.136100
     34 C30          7.0920     0.8460    -0.2640 ca         1 8VQ      -0.133000
     35 O31          9.3500     0.6630    -1.0120 os         1 8VQ      -0.344100
     36 C32         10.7700     0.5530    -0.8080 c3         1 8VQ       0.149900
     37 H1           3.3260    -2.2600    -1.4200 h1         1 8VQ       0.042700
     38 H2           2.8240     0.0760    -1.3160 h1         1 8VQ       0.050700
     39 H3           1.6650    -0.3890     1.4940 h1         1 8VQ       0.080700
     40 H4           0.1910     0.1700    -1.1290 h2         1 8VQ       0.022700
     41 H6          -8.7650     2.5300    -2.3550 hc         1 8VQ       0.063033
     42 H7          -8.0940     0.8790    -2.6880 hc         1 8VQ       0.063033
     43 H8          -8.8770     1.1410    -1.1950 hc         1 8VQ       0.063033
     44 H9          -6.7250     0.0520    -0.7630 hn         1 8VQ       0.331500
     45 H10         -4.9420     1.8490     0.6220 h2         1 8VQ       0.067700
     46 H11         -4.6850    -1.1450    -0.0840 h1         1 8VQ       0.107700
     47 H12         -5.4690    -0.2940     2.6650 hn         1 8VQ       0.312500
     48 H13         -7.8610    -0.3660     3.2290 hc         1 8VQ       0.063367
     49 H14         -8.7100    -1.8200     2.5560 hc         1 8VQ       0.063367
     50 H15         -7.1800    -1.9030     3.5250 hc         1 8VQ       0.063367
     51 H16         -2.6120     2.2150     0.0830 h1         1 8VQ       0.059700
     52 H17         -0.7170     2.0160    -1.4550 h1         1 8VQ       0.031200
     53 H18         -1.6150     0.8980    -2.4970 h1         1 8VQ       0.031200
     54 H19         -1.6290     3.0150    -3.3690 ho         1 8VQ       0.503000
     55 H20         -2.1840    -0.7580    -0.5990 h1         1 8VQ       0.080700
     56 H21         -3.1900     0.5660     1.9680 h1         1 8VQ       0.035700
     57 H22         -3.7350    -1.8360     2.2820 ho         1 8VQ       0.506000
     58 H23          0.8820     1.8000     1.2120 ho         1 8VQ       0.520000
     59 H24          3.6680    -2.2240     0.9740 ho         1 8VQ       0.522000
     60 H25          1.0610    -1.7320    -2.1450 h1         1 8VQ       0.044700
     61 H26          0.9850    -4.2850    -0.4530 h1         1 8VQ       0.038700
     62 H27          1.6630    -4.1540    -2.0800 h1         1 8VQ       0.038700
     63 H28          4.5350     1.6140    -0.5100 h1         1 8VQ       0.040200
     64 H29          4.1430     1.5910     1.2250 h1         1 8VQ       0.040200
     65 H30          5.8210     0.9650     2.9080 ha         1 8VQ       0.125000
     66 H31          8.2370     0.7820     3.4580 ha         1 8VQ       0.111000
     67 H32          9.9230     0.6390     1.6590 ha         1 8VQ       0.116000
     68 H33          6.7770     0.8600    -1.3040 ha         1 8VQ       0.124000
     69 H34         11.1540     1.4220    -0.2580 h1         1 8VQ       0.040367
     70 H35         11.0140    -0.3570    -0.2440 h1         1 8VQ       0.040367
     71 H36         11.2900     0.5040    -1.7730 h1         1 8VQ       0.040367
     72 O6          -0.4210    -4.0130    -1.9770 oh         1 8VQ      -0.715000
     73 C33         -6.9170     2.0110    -1.2960 c          1 8VQ       0.611100
     74 H5          -0.5370    -4.9920    -2.0050 ho         1 8VQ       0.506000
@<TRIPOS>BOND
     1     1     2 1   
     2     1    23 1   
     3     1    24 1   
     4     1    37 1   
     5     2     3 1   
     6     2    27 1   
     7     2    38 1   
     8     3     4 1   
     9     3    22 1   
    10     3    39 1   
    11     4    21 1   
    12     4    26 1   
    13     4    40 1   
    14     5    73 2   
    15     6    41 1   
    16     6    42 1   
    17     6    43 1   
    18     6    73 1   
    19     7     8 1   
    20     7    44 1   
    21     7    73 1   
    22     8     9 1   
    23     8    14 1   
    24     8    45 1   
    25     9    10 1   
    26     9    19 1   
    27     9    46 1   
    28    10    11 1   
    29    10    47 1   
    30    11    12 1   
    31    11    13 2   
    32    12    48 1   
    33    12    49 1   
    34    12    50 1   
    35    14    15 1   
    36    15    16 1   
    37    15    18 1   
    38    15    51 1   
    39    16    17 1   
    40    16    52 1   
    41    16    53 1   
    42    17    54 1   
    43    18    19 1   
    44    18    21 1   
    45    18    55 1   
    46    19    20 1   
    47    19    56 1   
    48    20    57 1   
    49    22    58 1   
    50    23    59 1   
    51    24    25 1   
    52    24    26 1   
    53    24    60 1   
    54    25    61 1   
    55    25    62 1   
    56    25    72 1   
    57    27    28 1   
    58    28    29 1   
    59    28    63 1   
    60    28    64 1   
    61    29    30 ar  
    62    29    34 ar  
    63    30    31 ar  
    64    30    65 1   
    65    31    32 ar  
    66    31    66 1   
    67    32    33 ar  
    68    32    67 1   
    69    33    34 ar  
    70    33    35 1   
    71    34    68 1   
    72    35    36 1   
    73    36    69 1   
    74    36    70 1   
    75    36    71 1   
    76    72    74 1   
@<TRIPOS>SUBSTRUCTURE
     1 8VQ         1 TEMP              0 ****  ****    0 ROOT
