@<TRIPOS>MOLECULE
8VR
   30    31     1     0     0
SMALL
bcc


@<TRIPOS>ATOM
      1 C1           2.4970     0.9290    -0.2800 c6         1 8VR       0.321900
      2 C2           2.3730    -0.4620     0.3370 c6         1 8VR       0.077100
      3 C3           1.3840    -1.2820    -0.4830 c6         1 8VR       0.169100
      4 C4           0.0610    -0.5510    -0.6200 c6         1 8VR       0.136100
      5 C5           0.2980     0.8720    -1.1260 c6         1 8VR       0.074100
      6 C6          -1.0130     1.6280    -1.0500 c6         1 8VR       0.156400
      7 C7          -1.7860     0.2000     0.6460 c6         1 8VR       0.181600
      8 C8          -2.8990    -0.5000    -0.2070 c          1 8VR       0.897600
      9 C9          -2.2470     0.2510     2.0910 c3         1 8VR      -0.055100
     10 O1           3.3350     1.6870     0.5150 oh         1 8VR      -0.590800
     11 O2           3.6040    -1.1460     0.3080 oh         1 8VR      -0.618800
     12 O3           1.1560    -2.5510     0.0690 oh         1 8VR      -0.552800
     13 O4          -0.5740    -0.5140     0.6350 os         1 8VR      -0.396600
     14 O5           1.2390     1.5520    -0.3210 os         1 8VR      -0.419600
     15 O6          -1.5710     1.5270     0.2390 os         1 8VR      -0.403600
     16 O8A         -3.7980     0.2440    -0.6380 o          1 8VR      -0.811800
     17 O8B         -2.8210    -1.7360    -0.3080 o          1 8VR      -0.811800
     18 H1           2.8940     0.8330    -1.3060 h2         1 8VR       0.007700
     19 H2           1.9950    -0.3560     1.3640 h1         1 8VR       0.089700
     20 H3           1.7960    -1.3690    -1.5030 h1         1 8VR       0.017700
     21 H4          -0.5600    -1.0780    -1.3580 h1         1 8VR       0.085700
     22 H5           0.6340     0.8340    -2.1730 h1         1 8VR       0.021700
     23 H6          -0.8590     2.6880    -1.2570 h1         1 8VR       0.053200
     24 H7          -1.6910     1.2370    -1.8180 h1         1 8VR       0.053200
     25 H8          -3.1690     0.8250     2.1740 hc         1 8VR       0.036033
     26 H9          -2.4390    -0.7540     2.4650 hc         1 8VR       0.036033
     27 H10         -1.4890     0.7160     2.7250 hc         1 8VR       0.036033
     28 H11          3.6890     2.4210     0.0030 ho         1 8VR       0.408000
     29 H12          4.2000    -0.7320     0.9400 ho         1 8VR       0.410000
     30 H13          2.0080    -2.9910     0.1620 ho         1 8VR       0.395000
@<TRIPOS>BOND
     1     1     2 1   
     2     1    10 1   
     3     1    14 1   
     4     1    18 1   
     5     2     3 1   
     6     2    11 1   
     7     2    19 1   
     8     3     4 1   
     9     3    12 1   
    10     3    20 1   
    11     4     5 1   
    12     4    13 1   
    13     4    21 1   
    14     5     6 1   
    15     5    14 1   
    16     5    22 1   
    17     6    15 1   
    18     6    23 1   
    19     6    24 1   
    20     7     8 1   
    21     7     9 1   
    22     7    13 1   
    23     7    15 1   
    24     8    16 1   
    25     8    17 1   
    26     9    25 1   
    27     9    26 1   
    28     9    27 1   
    29    10    28 1   
    30    11    29 1   
    31    12    30 1   
@<TRIPOS>SUBSTRUCTURE
     1 8VR         1 TEMP              0 ****  ****    0 ROOT
