@<TRIPOS>MOLECULE
8VR
   30    31     1     0     0
SMALL
No Charge or Current Charge


@<TRIPOS>ATOM
      1 C1           2.6330     0.8410    -0.3770 c6         1 8VR       0.368300
      2 C2           2.4680    -0.5630     0.2870 c6         1 8VR       0.100300
      3 C3           1.4100    -1.3620    -0.5220 c6         1 8VR       0.192300
      4 C4           0.0650    -0.5670    -0.5970 c6         1 8VR       0.159300
      5 C5           0.3370     0.8780    -1.1270 c6         1 8VR       0.097300
      6 C6          -0.9850     1.6870    -1.0620 c6         1 8VR       0.179600
      7 C7          -1.8820     0.2150     0.6720 c6         1 8VR       0.228000
      8 C8          -3.0690    -0.5060    -0.1430 c          1 8VR       0.687000
      9 C9          -2.3320     0.3160     2.1530 c3         1 8VR      -0.055100
     10 O1           3.5090     1.6570     0.3710 oh         1 8VR      -0.713000
     11 O2           3.7230    -1.2920     0.3530 oh         1 8VR      -0.741000
     12 O3           1.2620    -2.6690     0.0590 oh         1 8VR      -0.675000
     13 O4          -0.6150    -0.5060     0.6900 os         1 8VR      -0.443000
     14 O5           1.3860     1.5350    -0.3630 os         1 8VR      -0.466000
     15 O6          -1.5890     1.5800     0.2510 os         1 8VR      -0.450000
     16 O8A         -3.8100     0.2040    -0.8170 o          1 8VR      -0.706500
     17 O8B         -2.9310    -1.6900    -0.4310 o          1 8VR      -0.706500
     18 H1           2.9970     0.7450    -1.4110 h2         1 8VR       0.007700
     19 H2           2.0720    -0.4010     1.3020 h1         1 8VR       0.089700
     20 H3           1.7870    -1.4700    -1.5500 h1         1 8VR       0.017700
     21 H4          -0.5870    -1.0830    -1.3150 h1         1 8VR       0.085700
     22 H5           0.6650     0.8230    -2.1750 h1         1 8VR       0.021700
     23 H6          -0.7860     2.7450    -1.2820 h1         1 8VR       0.053200
     24 H7          -1.6850     1.3140    -1.8230 h1         1 8VR       0.053200
     25 H8          -3.2570     0.8980     2.2440 hc         1 8VR       0.036033
     26 H9          -2.5240    -0.6780     2.5740 hc         1 8VR       0.036033
     27 H10         -1.5680     0.8000     2.7720 hc         1 8VR       0.036033
     28 H11          2.9820     2.4760     0.4960 ho         1 8VR       0.507000
     29 H12          4.4030    -0.6220     0.6110 ho         1 8VR       0.509000
     30 H13          2.1680    -2.8800     0.3870 ho         1 8VR       0.494000
@<TRIPOS>BOND
     1     1     2 1   
     2     1    10 1   
     3     1    14 1   
     4     1    18 1   
     5     2     3 1   
     6     2    11 1   
     7     2    19 1   
     8     3     4 1   
     9     3    12 1   
    10     3    20 1   
    11     4     5 1   
    12     4    13 1   
    13     4    21 1   
    14     5     6 1   
    15     5    14 1   
    16     5    22 1   
    17     6    15 1   
    18     6    23 1   
    19     6    24 1   
    20     7     8 1   
    21     7     9 1   
    22     7    13 1   
    23     7    15 1   
    24     8    16 1   
    25     8    17 1   
    26     9    25 1   
    27     9    26 1   
    28     9    27 1   
    29    10    28 1   
    30    11    29 1   
    31    12    30 1   
@<TRIPOS>SUBSTRUCTURE
     1 8VR         1 TEMP              0 ****  ****    0 ROOT
