@<TRIPOS>MOLECULE
8VS
   82    85     1     0     0
SMALL
bcc


@<TRIPOS>ATOM
      1 N           -0.9510     1.1520     0.2220 ns         1 8VS      -0.563900
      2 CA           0.2390     0.9690    -0.5620 c3         1 8VS       0.036700
      3 C            1.4240     1.5680     0.1820 c          1 8VS       0.659100
      4 O            1.2990     2.5420     0.9070 o          1 8VS      -0.608100
      5 CB           0.1310     1.6760    -1.9320 c3         1 8VS      -0.051100
      6 CG          -1.0340     1.1590    -2.7200 ca         1 8VS      -0.057300
      7 CD1         -0.8910     0.0660    -3.5710 ca         1 8VS      -0.129000
      8 CD2         -2.2930     1.7320    -2.5800 ca         1 8VS      -0.129000
      9 CE1         -1.9760    -0.4340    -4.2690 ca         1 8VS      -0.082000
     10 CE2         -3.3860     1.2200    -3.2570 ca         1 8VS      -0.082000
     11 CZ          -3.2410     0.1300    -4.1110 ca         1 8VS      -0.148600
     12 CAA         -6.0790    -0.1880    -1.0040 ca         1 8VS      -0.136500
     13 CAB         -6.6150     1.0700    -1.2560 ca         1 8VS      -0.144000
     14 CAC         -5.9880     2.1940    -0.7360 ca         1 8VS      -0.136500
     15 CAD         -4.8480     2.0530     0.0450 ca         1 8VS      -0.111500
     16 CAE         -4.3130     0.7970     0.3160 ca         1 8VS      -0.071300
     17 CAF         -4.9340    -0.3220    -0.2320 ca         1 8VS      -0.111500
     18 CAG         -3.1000     0.6760     1.2120 c3         1 8VS      -0.090400
     19 CAH         -3.3220    -0.2620     2.4120 c6         1 8VS      -0.047700
     20 CAI         -1.9030     0.2150     0.3890 c          1 8VS       0.681100
     21 CAJ         -2.0830    -0.3150     3.3090 c6         1 8VS      -0.073900
     22 CAK         -2.2960    -1.2120     4.5250 c6         1 8VS      -0.072400
     23 CAL         -3.5210    -0.7890     5.3280 c6         1 8VS      -0.075400
     24 CAM         -4.7580    -0.7340     4.4390 c6         1 8VS      -0.072400
     25 CAN         -4.5390     0.1700     3.2290 c6         1 8VS      -0.073900
     26 CBB         -4.3730    -0.4360    -4.9050 c          1 8VS       0.684700
     27 CBE          3.8340     1.6230     0.3410 c3         1 8VS       0.034700
     28 CBF          3.9920     2.9690    -0.3770 c          1 8VS       0.650100
     29 CBJ          5.0300     0.7240     0.0030 c3         1 8VS      -0.042100
     30 CBK          4.9510    -0.6070     0.6990 ca         1 8VS      -0.084300
     31 CBL          5.2020    -0.7020     2.0660 ca         1 8VS      -0.111000
     32 CBM          5.1040    -1.9210     2.7160 ca         1 8VS      -0.122000
     33 CBN          4.7540    -3.0710     2.0190 ca         1 8VS      -0.097000
     34 CBO          4.5080    -2.9690     0.6590 ca         1 8VS      -0.013900
     35 CBP          4.6040    -1.7540    -0.0060 ca         1 8VS      -0.102000
     36 NAS          2.6080     0.9890    -0.0620 ns         1 8VS      -0.543900
     37 NBC         -5.6100    -0.1580    -4.4640 nt         1 8VS      -0.674000
     38 NBG          4.6790     3.8890     0.3050 ns         1 8VS      -0.565900
     39 OAQ         -1.8240    -0.9130    -0.0690 o          1 8VS      -0.596100
     40 OBD         -4.1680    -1.1090    -5.9080 o          1 8VS      -0.611100
     41 OBI          3.5570     3.1450    -1.5040 o          1 8VS      -0.600100
     42 BR1          4.0350    -4.5170    -0.3160 br         1 8VS      -0.089100
     43 H1          -1.0790     2.0590     0.6420 hn         1 8VS       0.329500
     44 H2           0.3860    -0.1000    -0.7200 h1         1 8VS       0.094700
     45 H3           0.0260     2.7500    -1.7630 hc         1 8VS       0.067700
     46 H4           1.0630     1.5290    -2.4820 hc         1 8VS       0.067700
     47 H5           0.0820    -0.3950    -3.6940 ha         1 8VS       0.130000
     48 H6          -2.4240     2.5910    -1.9330 ha         1 8VS       0.130000
     49 H7          -1.8430    -1.2750    -4.9360 ha         1 8VS       0.141500
     50 H8          -4.3440     1.7060    -3.1210 ha         1 8VS       0.141500
     51 H10         -7.5170     1.1720    -1.8470 ha         1 8VS       0.130000
     52 H11         -6.3900     3.1800    -0.9280 ha         1 8VS       0.133000
     53 H12         -4.3730     2.9340     0.4610 ha         1 8VS       0.140000
     54 H13         -4.5370    -1.3110    -0.0460 ha         1 8VS       0.140000
     55 H14         -2.8900     1.6730     1.6150 hc         1 8VS       0.056700
     56 H15         -3.5090    -1.2710     2.0250 hc         1 8VS       0.067700
     57 H16         -1.2140    -0.6720     2.7490 hc         1 8VS       0.041950
     58 H17         -1.8430     0.7020     3.6430 hc         1 8VS       0.041950
     59 H18         -2.4210    -2.2470     4.1890 hc         1 8VS       0.039700
     60 H19         -1.4040    -1.1980     5.1550 hc         1 8VS       0.039700
     61 H20         -3.6820    -1.4750     6.1630 hc         1 8VS       0.038200
     62 H21         -3.3440     0.1990     5.7660 hc         1 8VS       0.038200
     63 H22         -5.0000    -1.7440     4.0930 hc         1 8VS       0.039700
     64 H23         -5.6230    -0.3860     5.0080 hc         1 8VS       0.039700
     65 H24         -4.3960     1.2030     3.5680 hc         1 8VS       0.041950
     66 H25         -5.4350     0.1720     2.6050 hc         1 8VS       0.041950
     67 H26          3.8140     1.7860     1.4230 h1         1 8VS       0.076700
     68 H27          5.5210     5.7610     0.5130 h1         1 8VS       0.042700
     69 H28          5.6460     5.1020    -1.1200 h1         1 8VS       0.042700
     70 H29          4.1010     5.7300    -0.5350 h1         1 8VS       0.042700
     71 H30          5.0860     0.5860    -1.0800 hc         1 8VS       0.065700
     72 H31          5.9430     1.2420     0.3020 hc         1 8VS       0.065700
     73 H32          5.4810     0.1830     2.6240 ha         1 8VS       0.131000
     74 H33          5.3020    -1.9870     3.7780 ha         1 8VS       0.138000
     75 H34          4.6810    -4.0190     2.5340 ha         1 8VS       0.151000
     76 H35          4.4180    -1.6940    -1.0720 ha         1 8VS       0.145000
     77 H36          2.6540     0.2390    -0.7340 hn         1 8VS       0.327500
     78 H37         -5.7820     0.2640    -3.5680 hn         1 8VS       0.313500
     79 H38         -6.4090    -0.5190    -4.9590 hn         1 8VS       0.313500
     80 H39          4.9760     3.6850     1.2440 hn         1 8VS       0.316500
     81 H9          -6.5580    -1.0720    -1.4060 ha         1 8VS       0.133000
     82 CBH          5.0000     5.1850    -0.2460 c3         1 8VS       0.094300
@<TRIPOS>BOND
     1     1     2 1   
     2     1    20 1   
     3     1    43 1   
     4     2     3 1   
     5     2     5 1   
     6     2    44 1   
     7     3     4 2   
     8     3    36 1   
     9     5     6 1   
    10     5    45 1   
    11     5    46 1   
    12     6     7 ar  
    13     6     8 ar  
    14     7     9 ar  
    15     7    47 1   
    16     8    10 ar  
    17     8    48 1   
    18     9    11 ar  
    19     9    49 1   
    20    10    11 ar  
    21    10    50 1   
    22    11    26 1   
    23    12    13 ar  
    24    12    17 ar  
    25    12    81 1   
    26    13    14 ar  
    27    13    51 1   
    28    14    15 ar  
    29    14    52 1   
    30    15    16 ar  
    31    15    53 1   
    32    16    17 ar  
    33    16    18 1   
    34    17    54 1   
    35    18    19 1   
    36    18    20 1   
    37    18    55 1   
    38    19    21 1   
    39    19    25 1   
    40    19    56 1   
    41    20    39 2   
    42    21    22 1   
    43    21    57 1   
    44    21    58 1   
    45    22    23 1   
    46    22    59 1   
    47    22    60 1   
    48    23    24 1   
    49    23    61 1   
    50    23    62 1   
    51    24    25 1   
    52    24    63 1   
    53    24    64 1   
    54    25    65 1   
    55    25    66 1   
    56    26    37 1   
    57    26    40 2   
    58    27    28 1   
    59    27    29 1   
    60    27    36 1   
    61    27    67 1   
    62    28    38 1   
    63    28    41 2   
    64    29    30 1   
    65    29    71 1   
    66    29    72 1   
    67    30    31 ar  
    68    30    35 ar  
    69    31    32 ar  
    70    31    73 1   
    71    32    33 ar  
    72    32    74 1   
    73    33    34 ar  
    74    33    75 1   
    75    34    35 ar  
    76    34    42 1   
    77    35    76 1   
    78    36    77 1   
    79    37    78 1   
    80    37    79 1   
    81    38    80 1   
    82    38    82 1   
    83    68    82 1   
    84    69    82 1   
    85    70    82 1   
@<TRIPOS>SUBSTRUCTURE
     1 8VS         1 TEMP              0 ****  ****    0 ROOT
