@<TRIPOS>MOLECULE
8VS
   82    85     1     0     0
SMALL
No Charge or Current Charge


@<TRIPOS>ATOM
      1 N           -0.8090     1.1550     0.1700 ns         1 8VS      -0.496900
      2 CA           0.3620     1.3100    -0.7240 c3         1 8VS       0.036700
      3 C            1.5560     1.9430     0.0430 c          1 8VS       0.592100
      4 O            1.4390     2.4750     1.1410 o          1 8VS      -0.608100
      5 CB          -0.0160     2.1320    -1.9850 c3         1 8VS      -0.051100
      6 CG          -1.2180     1.5600    -2.7290 ca         1 8VS      -0.057300
      7 CD1         -1.0650     0.4450    -3.5710 ca         1 8VS      -0.111000
      8 CD2         -2.4960     2.1220    -2.5620 ca         1 8VS      -0.111000
      9 CE1         -2.1750    -0.1040    -4.2340 ca         1 8VS      -0.064000
     10 CE2         -3.6090     1.5770    -3.2250 ca         1 8VS      -0.064000
     11 CZ          -3.4640     0.4520    -4.0720 ca         1 8VS      -0.148600
     12 CAA         -5.7900    -0.8210    -1.2050 ca         1 8VS      -0.118500
     13 CAB         -6.5300     0.3710    -1.2680 ca         1 8VS      -0.126000
     14 CAC         -6.0850     1.5070    -0.5720 ca         1 8VS      -0.118500
     15 CAD         -4.9040     1.4500     0.1880 ca         1 8VS      -0.093500
     16 CAE         -4.1590     0.2550     0.2650 ca         1 8VS      -0.071300
     17 CAF         -4.6120    -0.8800    -0.4410 ca         1 8VS      -0.093500
     18 CAG         -2.8800     0.2000     1.1120 c3         1 8VS      -0.090400
     19 CAH         -2.9060    -0.8910     2.2380 c6         1 8VS      -0.047700
     20 CAI         -1.6520     0.0650     0.1840 c          1 8VS       0.614100
     21 CAJ         -1.6380    -0.8110     3.1400 c6         1 8VS      -0.073900
     22 CAK         -1.6520    -1.8960     4.2450 c6         1 8VS      -0.072400
     23 CAL         -2.9330    -1.8010     5.1060 c6         1 8VS      -0.075400
     24 CAM         -4.2020    -1.8800     4.2250 c6         1 8VS      -0.072400
     25 CAN         -4.1880    -0.7960     3.1190 c6         1 8VS      -0.073900
     26 CBB         -4.6400    -0.1620    -4.7990 c          1 8VS       0.617700
     27 CBE          4.0790     2.2110    -0.0000 c3         1 8VS       0.034700
     28 CBF          4.9920     2.9050    -1.0520 c          1 8VS       0.583100
     29 CBJ          4.7660     0.9570     0.6050 c3         1 8VS      -0.042100
     30 CBK          3.8710     0.1810     1.5670 ca         1 8VS      -0.084300
     31 CBL          3.7990     0.5500     2.9250 ca         1 8VS      -0.093000
     32 CBM          2.9610    -0.1550     3.8080 ca         1 8VS      -0.104000
     33 CBN          2.1870    -1.2280     3.3370 ca         1 8VS      -0.079000
     34 CBO          2.2510    -1.5950     1.9830 ca         1 8VS      -0.013900
     35 CBP          3.0940    -0.8990     1.1010 ca         1 8VS      -0.084000
     36 NAS          2.7730     1.8520    -0.6010 ns         1 8VS      -0.476900
     37 NBC         -5.8590     0.3970    -4.6380 nt         1 8VS      -0.607000
     38 NBG          6.1040     3.5400    -0.5380 ns         1 8VS      -0.498900
     39 OAQ         -1.4330    -0.9320    -0.4920 o          1 8VS      -0.596100
     40 OBD         -4.5310    -1.1350    -5.5270 o          1 8VS      -0.611100
     41 OBI          4.7530     2.9020    -2.2540 o          1 8VS      -0.600100
     42 Br1          1.1830    -3.0440     1.3350 br         1 8VS      -0.089100
     43 H1          -1.0350     1.9180     0.7980 hn         1 8VS       0.329500
     44 H2           0.6950     0.3140    -1.0440 h1         1 8VS       0.094700
     45 H3          -0.2180     3.1680    -1.6860 hc         1 8VS       0.067700
     46 H4           0.8470     2.1780    -2.6610 hc         1 8VS       0.067700
     47 H5          -0.0840    -0.0060    -3.7060 ha         1 8VS       0.112000
     48 H6          -2.6330     2.9790    -1.9070 ha         1 8VS       0.112000
     49 H7          -2.0290    -0.9710    -4.8770 ha         1 8VS       0.123500
     50 H8          -4.5800     2.0390    -3.0650 ha         1 8VS       0.123500
     51 H10         -7.4450     0.4140    -1.8540 ha         1 8VS       0.112000
     52 H11         -6.6550     2.4320    -0.6200 ha         1 8VS       0.115000
     53 H12         -4.5740     2.3380     0.7230 ha         1 8VS       0.122000
     54 H13         -4.0510    -1.8110    -0.4010 ha         1 8VS       0.122000
     55 H14         -2.7850     1.1690     1.6180 hc         1 8VS       0.056700
     56 H15         -2.9070    -1.8680     1.7340 hc         1 8VS       0.067700
     57 H16         -0.7300    -0.9260     2.5360 hc         1 8VS       0.041950
     58 H17         -1.5730     0.1830     3.6060 hc         1 8VS       0.041950
     59 H18         -1.5840    -2.8920     3.7860 hc         1 8VS       0.039700
     60 H19         -0.7670    -1.7870     4.8860 hc         1 8VS       0.039700
     61 H20         -2.9440    -2.6100     5.8500 hc         1 8VS       0.038200
     62 H21         -2.9320    -0.8580     5.6700 hc         1 8VS       0.038200
     63 H22         -4.2730    -2.8750     3.7660 hc         1 8VS       0.039700
     64 H23         -5.0970    -1.7610     4.8510 hc         1 8VS       0.039700
     65 H24         -4.2510     0.2010     3.5790 hc         1 8VS       0.041950
     66 H25         -5.0890    -0.9100     2.5010 hc         1 8VS       0.041950
     67 H26          3.9110     2.9400     0.8030 h1         1 8VS       0.076700
     68 H27          7.8760     4.6620    -0.6970 h1         1 8VS       0.042700
     69 H28          7.5500     3.5590    -2.0690 h1         1 8VS       0.042700
     70 H29          6.6080     5.0730    -1.8920 h1         1 8VS       0.042700
     71 H30          5.0860     0.3000    -0.2140 hc         1 8VS       0.065700
     72 H31          5.6870     1.2610     1.1190 hc         1 8VS       0.065700
     73 H32          4.3890     1.3850     3.2960 ha         1 8VS       0.113000
     74 H33          2.9100     0.1340     4.8550 ha         1 8VS       0.120000
     75 H34          1.5390    -1.7730     4.0200 ha         1 8VS       0.133000
     76 H35          3.1350    -1.1920     0.0550 ha         1 8VS       0.127000
     77 H36          2.7750     1.4430    -1.5290 hn         1 8VS       0.327500
     78 H37         -5.9750     1.1940    -4.0340 hn         1 8VS       0.313500
     79 H38         -6.6500    -0.0040    -5.1180 hn         1 8VS       0.313500
     80 H39          6.2330     3.5080     0.4670 hn         1 8VS       0.316500
     81 H9          -6.1310    -1.7010    -1.7460 ha         1 8VS       0.115000
     82 CBH          7.0940     4.2520    -1.3490 c3         1 8VS       0.094300
@<TRIPOS>BOND
     1     1     2 1   
     2     1    20 1   
     3     1    43 1   
     4     2     3 1   
     5     2     5 1   
     6     2    44 1   
     7     3     4 2   
     8     3    36 1   
     9     5     6 1   
    10     5    45 1   
    11     5    46 1   
    12     6     7 ar  
    13     6     8 ar  
    14     7     9 ar  
    15     7    47 1   
    16     8    10 ar  
    17     8    48 1   
    18     9    11 ar  
    19     9    49 1   
    20    10    11 ar  
    21    10    50 1   
    22    11    26 1   
    23    12    13 ar  
    24    12    17 ar  
    25    12    81 1   
    26    13    14 ar  
    27    13    51 1   
    28    14    15 ar  
    29    14    52 1   
    30    15    16 ar  
    31    15    53 1   
    32    16    17 ar  
    33    16    18 1   
    34    17    54 1   
    35    18    19 1   
    36    18    20 1   
    37    18    55 1   
    38    19    21 1   
    39    19    25 1   
    40    19    56 1   
    41    20    39 2   
    42    21    22 1   
    43    21    57 1   
    44    21    58 1   
    45    22    23 1   
    46    22    59 1   
    47    22    60 1   
    48    23    24 1   
    49    23    61 1   
    50    23    62 1   
    51    24    25 1   
    52    24    63 1   
    53    24    64 1   
    54    25    65 1   
    55    25    66 1   
    56    26    37 1   
    57    26    40 2   
    58    27    28 1   
    59    27    29 1   
    60    27    36 1   
    61    27    67 1   
    62    28    38 1   
    63    28    41 2   
    64    29    30 1   
    65    29    71 1   
    66    29    72 1   
    67    30    31 ar  
    68    30    35 ar  
    69    31    32 ar  
    70    31    73 1   
    71    32    33 ar  
    72    32    74 1   
    73    33    34 ar  
    74    33    75 1   
    75    34    35 ar  
    76    34    42 1   
    77    35    76 1   
    78    36    77 1   
    79    37    78 1   
    80    37    79 1   
    81    38    80 1   
    82    38    82 1   
    83    68    82 1   
    84    69    82 1   
    85    70    82 1   
@<TRIPOS>SUBSTRUCTURE
     1 8VS         1 TEMP              0 ****  ****    0 ROOT
