@<TRIPOS>MOLECULE
8VT
   85    88     1     0     0
SMALL
abcg2


@<TRIPOS>ATOM
      1 O35         -4.3760    -4.1880    -1.4560 o          1 8VT      -0.597100
      2 C33         -4.8110    -3.7640    -0.3990 c          1 8VT       0.613100
      3 C34         -6.0690    -4.3090     0.2270 c3         1 8VT      -0.179100
      4 N1          -4.2130    -2.7660     0.2960 ns         1 8VT      -0.501900
      5 C1,         -3.0150    -2.1220    -0.1180 c6         1 8VT       0.322700
      6 C2,         -3.0490    -0.6380     0.2580 c6         1 8VT       0.019700
      7 N2          -4.1340     0.0430    -0.4040 ns         1 8VT      -0.505900
      8 C36         -5.3140     0.3230     0.1890 c          1 8VT       0.619700
      9 C38         -6.3610     0.9200    -0.6970 ca         1 8VT      -0.119600
     10 C39         -6.4340     0.6420    -2.0630 ca         1 8VT      -0.129000
     11 C40         -7.4490     1.2080    -2.8140 ca         1 8VT      -0.079000
     12 C41         -8.3890     2.0520    -2.2360 ca         1 8VT      -0.179000
     13 C42         -8.3180     2.3250    -0.8710 ca         1 8VT       0.135100
     14 O44         -9.1730     3.1230    -0.2100 os         1 8VT      -0.337100
     15 C45        -10.2230     3.7380    -0.9320 c3         1 8VT       0.147900
     16 C43         -7.3070     1.7440    -0.1060 ca         1 8VT      -0.094000
     17 O37         -5.5250     0.1250     1.3760 o          1 8VT      -0.597100
     18 O5,         -1.9200    -2.7350     0.5170 os         1 8VT      -0.451000
     19 C5,         -0.6730    -2.2290     0.0870 c6         1 8VT       0.155300
     20 C6,          0.4050    -3.0940     0.7090 c3         1 8VT       0.167600
     21 O6,          0.2400    -4.4120     0.2460 oh         1 8VT      -0.701000
     22 C4,         -0.5540    -0.7510     0.4890 c6         1 8VT       0.149300
     23 C3,         -1.7200     0.0330    -0.1000 c6         1 8VT       0.162300
     24 O3,         -1.6660     1.3470     0.3780 oh         1 8VT      -0.682000
     25 O1           0.6450    -0.2060    -0.0270 os         1 8VT      -0.442000
     26 C1           1.6430     0.0880     0.8840 c6         1 8VT       0.367300
     27 C2           2.9600     0.2200     0.1150 c6         1 8VT       0.129300
     28 O2           3.3340    -1.0030    -0.4690 oh         1 8VT      -0.722000
     29 C3           4.0510     0.6300     1.0970 c6         1 8VT       0.185300
     30 C4           3.6450     1.8840     1.8640 c6         1 8VT       0.132300
     31 O4           3.6190     2.9670     0.9660 oh         1 8VT      -0.686000
     32 C5           2.2800     1.6370     2.5140 c6         1 8VT       0.144300
     33 C6           1.7720     2.8490     3.2620 c3         1 8VT       0.170600
     34 O6           0.6400     2.4850     4.0130 oh         1 8VT      -0.705000
     35 O5           1.3250     1.2820     1.5350 os         1 8VT      -0.438000
     36 O3           5.2630     0.8390     0.4190 os         1 8VT      -0.430000
     37 C24          6.2800    -0.0990     0.6950 c3         1 8VT       0.207900
     38 C25          7.2930    -0.0450    -0.4120 ca         1 8VT      -0.053300
     39 C26          6.8910    -0.2820    -1.7290 ca         1 8VT      -0.116000
     40 C27          7.8290    -0.2460    -2.7430 ca         1 8VT      -0.080000
     41 C28          9.1700     0.0220    -2.4790 ca         1 8VT      -0.192000
     42 C29          9.5700     0.2600    -1.1690 ca         1 8VT       0.134100
     43 C30          8.6210     0.2290    -0.1410 ca         1 8VT      -0.133000
     44 O31         10.8360     0.5330    -0.7950 os         1 8VT      -0.345100
     45 C32         11.8410     0.5540    -1.7890 c3         1 8VT       0.149900
     46 H1          -5.9220    -5.3610     0.4740 hc         1 8VT       0.063033
     47 H2          -6.3720    -3.7830     1.1290 hc         1 8VT       0.063033
     48 H3          -6.8830    -4.2560    -0.4960 hc         1 8VT       0.063033
     49 H4          -4.6060    -2.4970     1.1850 hn         1 8VT       0.329500
     50 H5          -2.9240    -2.2220    -1.2070 h2         1 8VT       0.069700
     51 H6          -3.2000    -0.5520     1.3380 h1         1 8VT       0.106700
     52 H7          -4.0240     0.2470    -1.3860 hn         1 8VT       0.317500
     53 H8          -5.7360    -0.0310    -2.5440 ha         1 8VT       0.117000
     54 H9          -7.5200     0.9870    -3.8710 ha         1 8VT       0.117000
     55 H10         -9.1630     2.4790    -2.8590 ha         1 8VT       0.120000
     56 H11         -9.8440     4.4000    -1.7150 h1         1 8VT       0.043033
     57 H12        -10.8930     3.0020    -1.3850 h1         1 8VT       0.043033
     58 H13        -10.7860     4.3290    -0.2150 h1         1 8VT       0.043033
     59 H14         -7.2620     1.9540     0.9550 ha         1 8VT       0.149000
     60 H15         -0.5970    -2.2990    -1.0110 h1         1 8VT       0.059700
     61 H16          1.3850    -2.6950     0.4290 h1         1 8VT       0.031200
     62 H17          0.3270    -3.0300     1.8030 h1         1 8VT       0.031200
     63 H18          0.9600    -4.9410     0.6020 ho         1 8VT       0.503000
     64 H19         -0.5840    -0.6710     1.5840 h1         1 8VT       0.080700
     65 H20         -1.6120     0.0040    -1.1990 h1         1 8VT       0.035700
     66 H21         -2.3600     1.8550    -0.0560 ho         1 8VT       0.507000
     67 H22          1.7500    -0.7210     1.6330 h2         1 8VT       0.019700
     68 H23          2.8380     1.0050    -0.6440 h1         1 8VT       0.088700
     69 H24          2.7850    -1.1500    -1.2450 ho         1 8VT       0.519000
     70 H25          4.1590    -0.1750     1.8400 h1         1 8VT       0.043700
     71 H26          4.3790     2.0470     2.6650 h1         1 8VT       0.042700
     72 H27          3.7380     3.7830     1.4600 ho         1 8VT       0.501000
     73 H28          2.4070     0.8150     3.2380 h1         1 8VT       0.046700
     74 H29          2.5850     3.2120     3.9060 h1         1 8VT       0.027700
     75 H30          1.5440     3.6510     2.5480 h1         1 8VT       0.027700
     76 H31          0.3080     3.2740     4.4500 ho         1 8VT       0.506000
     77 H32          6.7590     0.1110     1.6600 h1         1 8VT       0.034200
     78 H33          5.8680    -1.1120     0.7560 h1         1 8VT       0.034200
     79 H34          5.8540    -0.4990    -1.9480 ha         1 8VT       0.127000
     80 H35          7.5250    -0.4320    -3.7660 ha         1 8VT       0.111000
     81 H36          9.8740     0.0410    -3.2990 ha         1 8VT       0.115000
     82 H37          8.9410     0.4260     0.8760 ha         1 8VT       0.123000
     83 H38         11.9360    -0.4110    -2.2930 h1         1 8VT       0.039700
     84 H39         11.6570     1.3270    -2.5400 h1         1 8VT       0.039700
     85 H40         12.7750     0.7760    -1.2800 h1         1 8VT       0.039700
@<TRIPOS>BOND
     1     1     2 2   
     2     2     3 1   
     3     2     4 1   
     4     3    46 1   
     5     3    47 1   
     6     3    48 1   
     7     4     5 1   
     8     4    49 1   
     9     5     6 1   
    10     5    18 1   
    11     5    50 1   
    12     6     7 1   
    13     6    23 1   
    14     6    51 1   
    15     7     8 1   
    16     7    52 1   
    17     8     9 1   
    18     8    17 2   
    19     9    10 ar  
    20     9    16 ar  
    21    10    11 ar  
    22    10    53 1   
    23    11    12 ar  
    24    11    54 1   
    25    12    13 ar  
    26    12    55 1   
    27    13    14 1   
    28    13    16 ar  
    29    14    15 1   
    30    15    56 1   
    31    15    57 1   
    32    15    58 1   
    33    16    59 1   
    34    18    19 1   
    35    19    20 1   
    36    19    22 1   
    37    19    60 1   
    38    20    21 1   
    39    20    61 1   
    40    20    62 1   
    41    21    63 1   
    42    22    23 1   
    43    22    25 1   
    44    22    64 1   
    45    23    24 1   
    46    23    65 1   
    47    24    66 1   
    48    25    26 1   
    49    26    27 1   
    50    26    35 1   
    51    26    67 1   
    52    27    28 1   
    53    27    29 1   
    54    27    68 1   
    55    28    69 1   
    56    29    30 1   
    57    29    36 1   
    58    29    70 1   
    59    30    31 1   
    60    30    32 1   
    61    30    71 1   
    62    31    72 1   
    63    32    33 1   
    64    32    35 1   
    65    32    73 1   
    66    33    34 1   
    67    33    74 1   
    68    33    75 1   
    69    34    76 1   
    70    36    37 1   
    71    37    38 1   
    72    37    77 1   
    73    37    78 1   
    74    38    39 ar  
    75    38    43 ar  
    76    39    40 ar  
    77    39    79 1   
    78    40    41 ar  
    79    40    80 1   
    80    41    42 ar  
    81    41    81 1   
    82    42    43 ar  
    83    42    44 1   
    84    43    82 1   
    85    44    45 1   
    86    45    83 1   
    87    45    84 1   
    88    45    85 1   
@<TRIPOS>SUBSTRUCTURE
     1 8VT         1 TEMP              0 ****  ****    0 ROOT
