@<TRIPOS>MOLECULE
8VT
   85    88     1     0     0
SMALL
No Charge or Current Charge


@<TRIPOS>ATOM
      1 O35         -4.4680    -4.5440     0.4270 o          1 8VT      -0.597100
      2 C33         -4.9820    -3.6120     1.0280 c          1 8VT       0.613100
      3 C34         -6.2410    -3.7750     1.8690 c3         1 8VT      -0.179100
      4 N1          -4.4900    -2.3350     0.9830 ns         1 8VT      -0.501900
      5 C1,         -3.2970    -1.9070     0.2720 c6         1 8VT       0.322700
      6 C2,         -3.2110    -0.3520     0.2210 c6         1 8VT       0.019700
      7 N2          -4.3710     0.2480    -0.4940 ns         1 8VT      -0.505900
      8 C36         -5.6070     0.5040     0.0660 c          1 8VT       0.619700
      9 C38         -6.6740     1.0660    -0.8520 ca         1 8VT      -0.119600
     10 C39         -6.4320     1.3380    -2.2210 ca         1 8VT      -0.129000
     11 C40         -7.4510     1.8570    -3.0380 ca         1 8VT      -0.079000
     12 C41         -8.7250     2.1140    -2.5070 ca         1 8VT      -0.179000
     13 C42         -8.9850     1.8500    -1.1460 ca         1 8VT       0.135100
     14 O44        -10.2160     2.0810    -0.5670 os         1 8VT      -0.337100
     15 C45        -11.3280     2.6100    -1.3110 c3         1 8VT       0.147900
     16 C43         -7.9630     1.3310    -0.3330 ca         1 8VT      -0.094000
     17 O37         -5.8160     0.2730     1.2490 o          1 8VT      -0.597100
     18 O5,         -2.1690    -2.4160     1.0020 os         1 8VT      -0.451000
     19 C5,         -0.8860    -2.1550     0.3750 c6         1 8VT       0.155300
     20 C6,          0.2110    -2.9330     1.1770 c3         1 8VT       0.167600
     21 O6,         -0.0880    -4.3320     1.3500 oh         1 8VT      -0.701000
     22 C4,         -0.6530    -0.6090     0.2880 c6         1 8VT       0.149300
     23 C3,         -1.8650     0.0480    -0.4500 c6         1 8VT       0.162300
     24 O3,         -1.7450     1.4840    -0.4960 oh         1 8VT      -0.682000
     25 O1           0.5920    -0.2570    -0.3780 os         1 8VT      -0.442000
     26 C1           1.7470    -0.0740     0.4690 c6         1 8VT       0.367300
     27 C2           3.0360     0.0620    -0.4050 c6         1 8VT       0.129300
     28 O2           3.1960    -1.0980    -1.2640 oh         1 8VT      -0.722000
     29 C3           4.2820     0.3260     0.5230 c6         1 8VT       0.185300
     30 C4           4.0000     1.5170     1.4940 c6         1 8VT       0.132300
     31 O4           4.0420     2.7600     0.7620 oh         1 8VT      -0.686000
     32 C5           2.6380     1.2970     2.2280 c6         1 8VT       0.144300
     33 C6           2.2610     2.4790     3.1800 c3         1 8VT       0.170600
     34 O6           1.0390     2.2490     3.9100 oh         1 8VT      -0.705000
     35 O5           1.5710     1.1070     1.2680 os         1 8VT      -0.438000
     36 O3           5.5010     0.6290    -0.2120 os         1 8VT      -0.430000
     37 C24          6.1180    -0.4170    -0.9860 c3         1 8VT       0.207900
     38 C25          7.5290     0.0250    -1.3470 ca         1 8VT      -0.053300
     39 C26          7.7740     0.7130    -2.5510 ca         1 8VT      -0.116000
     40 C27          9.0770     1.1210    -2.8830 ca         1 8VT      -0.080000
     41 C28         10.1460     0.8450    -2.0130 ca         1 8VT      -0.192000
     42 C29          9.9090     0.1580    -0.8020 ca         1 8VT       0.134100
     43 C30          8.6040    -0.2460    -0.4780 ca         1 8VT      -0.133000
     44 O31         10.9180    -0.1390     0.0920 os         1 8VT      -0.345100
     45 C32         12.2880     0.2310    -0.1460 c3         1 8VT       0.149900
     46 H1          -6.6180    -4.8040     1.8700 hc         1 8VT       0.063033
     47 H2          -6.0400    -3.4170     2.8850 hc         1 8VT       0.063033
     48 H3          -7.0000    -3.0660     1.5180 hc         1 8VT       0.063033
     49 H4          -5.0210    -1.6220     1.4700 hn         1 8VT       0.329500
     50 H5          -3.3120    -2.3250    -0.7470 h2         1 8VT       0.069700
     51 H6          -3.2050     0.0220     1.2560 h1         1 8VT       0.106700
     52 H7          -4.2970     0.4050    -1.4920 hn         1 8VT       0.317500
     53 H8          -5.4600     1.1550    -2.6720 ha         1 8VT       0.117000
     54 H9          -7.2510     2.0610    -4.0880 ha         1 8VT       0.117000
     55 H10         -9.4930     2.5150    -3.1630 ha         1 8VT       0.120000
     56 H11        -11.0890     3.5990    -1.7210 h1         1 8VT       0.043033
     57 H12        -11.5970     1.9410    -2.1390 h1         1 8VT       0.043033
     58 H13        -12.2060     2.7150    -0.6610 h1         1 8VT       0.043033
     59 H14         -8.1820     1.1330     0.7130 ha         1 8VT       0.149000
     60 H15         -0.9060    -2.5690    -0.6440 h1         1 8VT       0.059700
     61 H16          1.1620    -2.8330     0.6370 h1         1 8VT       0.031200
     62 H17          0.3310    -2.4480     2.1550 h1         1 8VT       0.031200
     63 H18          0.6120    -4.7090     1.9330 ho         1 8VT       0.503000
     64 H19         -0.6350    -0.2060     1.3120 h1         1 8VT       0.080700
     65 H20         -1.8780    -0.3420    -1.4790 h1         1 8VT       0.035700
     66 H21         -2.6600     1.8420    -0.5430 ho         1 8VT       0.507000
     67 H22          1.8610    -0.9390     1.1350 h2         1 8VT       0.019700
     68 H23          2.9000     0.9600    -1.0270 h1         1 8VT       0.088700
     69 H24          2.3410    -1.2020    -1.7470 ho         1 8VT       0.519000
     70 H25          4.4610    -0.5730     1.1320 h1         1 8VT       0.043700
     71 H26          4.7940     1.5200     2.2550 h1         1 8VT       0.042700
     72 H27          4.8070     2.6700     0.1450 ho         1 8VT       0.501000
     73 H28          2.7150     0.3910     2.8470 h1         1 8VT       0.046700
     74 H29          3.0910     2.6290     3.8830 h1         1 8VT       0.027700
     75 H30          2.1700     3.3950     2.5810 h1         1 8VT       0.027700
     76 H31          0.8420     3.0760     4.4070 ho         1 8VT       0.506000
     77 H32          6.1650    -1.3510    -0.4110 h1         1 8VT       0.034200
     78 H33          5.5590    -0.6080    -1.9100 h1         1 8VT       0.034200
     79 H34          6.9520     0.9340    -3.2300 ha         1 8VT       0.127000
     80 H35          9.2580     1.6520    -3.8160 ha         1 8VT       0.111000
     81 H36         11.1430     1.1710    -2.2930 ha         1 8VT       0.115000
     82 H37          8.4260    -0.7730     0.4570 ha         1 8VT       0.123000
     83 H38         12.6640    -0.2360    -1.0650 h1         1 8VT       0.039700
     84 H39         12.3880     1.3200    -0.2360 h1         1 8VT       0.039700
     85 H40         12.9210    -0.1010     0.6870 h1         1 8VT       0.039700
@<TRIPOS>BOND
     1     1     2 2   
     2     2     3 1   
     3     2     4 1   
     4     3    46 1   
     5     3    47 1   
     6     3    48 1   
     7     4     5 1   
     8     4    49 1   
     9     5     6 1   
    10     5    18 1   
    11     5    50 1   
    12     6     7 1   
    13     6    23 1   
    14     6    51 1   
    15     7     8 1   
    16     7    52 1   
    17     8     9 1   
    18     8    17 2   
    19     9    10 ar  
    20     9    16 ar  
    21    10    11 ar  
    22    10    53 1   
    23    11    12 ar  
    24    11    54 1   
    25    12    13 ar  
    26    12    55 1   
    27    13    14 1   
    28    13    16 ar  
    29    14    15 1   
    30    15    56 1   
    31    15    57 1   
    32    15    58 1   
    33    16    59 1   
    34    18    19 1   
    35    19    20 1   
    36    19    22 1   
    37    19    60 1   
    38    20    21 1   
    39    20    61 1   
    40    20    62 1   
    41    21    63 1   
    42    22    23 1   
    43    22    25 1   
    44    22    64 1   
    45    23    24 1   
    46    23    65 1   
    47    24    66 1   
    48    25    26 1   
    49    26    27 1   
    50    26    35 1   
    51    26    67 1   
    52    27    28 1   
    53    27    29 1   
    54    27    68 1   
    55    28    69 1   
    56    29    30 1   
    57    29    36 1   
    58    29    70 1   
    59    30    31 1   
    60    30    32 1   
    61    30    71 1   
    62    31    72 1   
    63    32    33 1   
    64    32    35 1   
    65    32    73 1   
    66    33    34 1   
    67    33    74 1   
    68    33    75 1   
    69    34    76 1   
    70    36    37 1   
    71    37    38 1   
    72    37    77 1   
    73    37    78 1   
    74    38    39 ar  
    75    38    43 ar  
    76    39    40 ar  
    77    39    79 1   
    78    40    41 ar  
    79    40    80 1   
    80    41    42 ar  
    81    41    81 1   
    82    42    43 ar  
    83    42    44 1   
    84    43    82 1   
    85    44    45 1   
    86    45    83 1   
    87    45    84 1   
    88    45    85 1   
@<TRIPOS>SUBSTRUCTURE
     1 8VT         1 TEMP              0 ****  ****    0 ROOT
