@<TRIPOS>MOLECULE
8VU
   54    55     1     0     0
SMALL
abcg2


@<TRIPOS>ATOM
      1 C10          0.8610     0.4570    -0.6250 c          1 8VU       0.612100
      2 C13          3.1910     0.4560    -1.2110 c6         1 8VU       0.026700
      3 C17          2.4210     1.5110     0.9570 c6         1 8VU       0.097000
      4 C26          4.5090    -3.7190    -0.7310 c3         1 8VU      -0.105767
      5 C28          5.1760    -2.7950     1.4920 c3         1 8VU      -0.105767
      6 C01         -6.6610     1.0630    -0.8770 ca         1 8VU       0.163000
      7 C02         -6.0260    -0.1580    -0.7900 ca         1 8VU      -0.170000
      8 C03         -4.7560    -0.1940    -0.2450 ca         1 8VU       0.189000
      9 C04         -4.0950     0.9310     0.2250 ca         1 8VU      -0.113300
     10 C05         -4.7690     2.1460     0.1160 ca         1 8VU      -0.113000
     11 C06         -6.0350     2.2110    -0.4260 ca         1 8VU       0.121000
     12 C07         -2.7050     0.8610     0.7820 c3         1 8VU      -0.071100
     13 C08         -1.6250     0.8530    -0.3190 c3         1 8VU       0.176500
     14 C09         -0.2510     0.8310     0.3360 c3         1 8VU      -0.147400
     15 N11          2.1340     0.7390    -0.2440 n          1 8VU      -0.411800
     16 O12          0.6260    -0.1100    -1.6830 o          1 8VU      -0.587100
     17 C14          4.4810     1.2380    -0.9920 c          1 8VU       0.572000
     18 N15          4.7160     1.6930     0.2400 ns         1 8VU      -0.495900
     19 C16          3.8680     1.3720     1.3630 c6         1 8VU       0.101000
     20 O18          5.2510     1.3930    -1.9300 o          1 8VU      -0.563000
     21 N19         -1.6910     1.9790    -1.2320 n8         1 8VU      -0.986200
     22 F20         -6.6720     3.3830    -0.5220 f          1 8VU      -0.155000
     23 F22         -4.1430    -1.3850    -0.1660 f          1 8VU      -0.166000
     24 C23          3.5490    -1.0310    -1.2760 c3         1 8VU       0.156600
     25 O24          4.2650    -1.3700    -0.1200 os         1 8VU      -0.479000
     26 C25          4.1580    -2.7090     0.3620 c3         1 8VU       0.192000
     27 C27          2.7550    -2.9730     0.9080 c3         1 8VU      -0.105767
     28 H131         2.8370     0.7400    -2.2050 h1         1 8VU       0.104700
     29 H172         2.1980     2.5700     0.7950 h1         1 8VU       0.045200
     30 H171         1.8010     1.1640     1.7830 h1         1 8VU       0.045200
     31 H3           5.4890    -3.5040    -1.1610 hc         1 8VU       0.041811
     32 H1           4.5400    -4.7270    -0.3150 hc         1 8VU       0.041811
     33 H2           3.7770    -3.7270    -1.5410 hc         1 8VU       0.041811
     34 H5           6.1880    -2.6190     1.1240 hc         1 8VU       0.041811
     35 H6           4.9620    -2.0580     2.2680 hc         1 8VU       0.041811
     36 H4           5.1530    -3.7820     1.9520 hc         1 8VU       0.041811
     37 H021        -6.5120    -1.0600    -1.1380 ha         1 8VU       0.157000
     38 H051        -4.3010     3.0560     0.4700 ha         1 8VU       0.136000
     39 H072        -2.5450     1.7220     1.4360 hc         1 8VU       0.058200
     40 H071        -2.5910    -0.0270     1.4090 hc         1 8VU       0.058200
     41 H7          -1.7500    -0.0550    -0.9120 h1         1 8VU       0.093700
     42 H092        -0.2320     0.1130     1.1640 hc         1 8VU       0.057200
     43 H091        -0.0700     1.8090     0.7910 hc         1 8VU       0.057200
     44 H8           5.6010     2.1490     0.4110 hn         1 8VU       0.322500
     45 H161         4.0700     2.0790     2.1650 h1         1 8VU       0.056700
     46 H162         4.0700     0.3680     1.7400 h1         1 8VU       0.056700
     47 H10         -2.5580     1.9600    -1.7550 hn         1 8VU       0.395500
     48 H9          -1.7000     2.8480    -0.7080 hn         1 8VU       0.395500
     49 H231         2.6270    -1.6060    -1.3850 h1         1 8VU       0.053200
     50 H232         4.1450    -1.2030    -2.1810 h1         1 8VU       0.053200
     51 H14          2.6990    -3.9780     1.3290 hc         1 8VU       0.041811
     52 H12          2.5070    -2.2630     1.6990 hc         1 8VU       0.041811
     53 H13          1.9870    -2.9030     0.1370 hc         1 8VU       0.041811
     54 F21         -7.8890     1.1420    -1.3940 f          1 8VU      -0.151000
@<TRIPOS>BOND
     1     1    14 1   
     2     1    15 1   
     3     1    16 2   
     4     2    15 1   
     5     2    17 1   
     6     2    24 1   
     7     2    28 1   
     8     3    15 1   
     9     3    19 1   
    10     3    29 1   
    11     3    30 1   
    12     4    26 1   
    13     4    31 1   
    14     4    32 1   
    15     4    33 1   
    16     5    26 1   
    17     5    34 1   
    18     5    35 1   
    19     5    36 1   
    20     6     7 ar  
    21     6    11 ar  
    22     6    54 1   
    23     7     8 ar  
    24     7    37 1   
    25     8     9 ar  
    26     8    23 1   
    27     9    10 ar  
    28     9    12 1   
    29    10    11 ar  
    30    10    38 1   
    31    11    22 1   
    32    12    13 1   
    33    12    39 1   
    34    12    40 1   
    35    13    14 1   
    36    13    21 1   
    37    13    41 1   
    38    14    42 1   
    39    14    43 1   
    40    17    18 1   
    41    17    20 2   
    42    18    19 1   
    43    18    44 1   
    44    19    45 1   
    45    19    46 1   
    46    21    47 1   
    47    21    48 1   
    48    24    25 1   
    49    24    49 1   
    50    24    50 1   
    51    25    26 1   
    52    26    27 1   
    53    27    51 1   
    54    27    52 1   
    55    27    53 1   
@<TRIPOS>SUBSTRUCTURE
     1 8VU         1 TEMP              0 ****  ****    0 ROOT
