@<TRIPOS>MOLECULE
8VU
   54    55     1     0     0
SMALL
No Charge or Current Charge


@<TRIPOS>ATOM
      1 C10          0.7750     0.5910    -0.7610 c          1 8VU       0.612100
      2 C13          3.2360     0.2610    -1.3160 c6         1 8VU       0.026700
      3 C17          2.5440     1.5280     0.8170 c6         1 8VU       0.097000
      4 C26          5.3680    -3.4900    -0.4140 c3         1 8VU      -0.105767
      5 C28          4.6970    -2.8940     1.9650 c3         1 8VU      -0.105767
      6 C01         -6.9180     1.1350    -0.7040 ca         1 8VU       0.163000
      7 C02         -6.1470    -0.0290    -0.8470 ca         1 8VU      -0.170000
      8 C03         -4.8270    -0.0520    -0.3710 ca         1 8VU       0.189000
      9 C04         -4.2620     1.0860     0.2490 ca         1 8VU      -0.113300
     10 C05         -5.0470     2.2510     0.3910 ca         1 8VU      -0.113000
     11 C06         -6.3700     2.2740    -0.0850 ca         1 8VU       0.121000
     12 C07         -2.8240     1.0650     0.7740 c3         1 8VU      -0.071100
     13 C08         -1.7550     1.1160    -0.3460 c3         1 8VU       0.176500
     14 C09         -0.3180     1.0690     0.2180 c3         1 8VU      -0.147400
     15 N11          2.1340     0.7240    -0.3800 n          1 8VU      -0.411800
     16 O12          0.4880     0.0390    -1.8160 o          1 8VU      -0.587100
     17 C14          4.6070     0.9830    -1.2170 c          1 8VU       0.572000
     18 N15          4.8410     1.7030    -0.0750 ns         1 8VU      -0.495900
     19 C16          4.0550     1.5100     1.1400 c6         1 8VU       0.101000
     20 O18          5.4100     1.0050    -2.1380 o          1 8VU      -0.563000
     21 N19         -1.9360     2.3340    -1.1590 n8         1 8VU      -0.986200
     22 F20         -7.1100     3.3980     0.0570 f          1 8VU      -0.155000
     23 F22         -4.1010    -1.1850    -0.5100 f          1 8VU      -0.166000
     24 C23          3.5070    -1.2650    -1.1980 c3         1 8VU       0.156600
     25 O24          3.9600    -1.5710     0.1430 os         1 8VU      -0.479000
     26 C25          4.2350    -2.9480     0.4930 c3         1 8VU       0.192000
     27 C27          2.9320    -3.7770     0.3620 c3         1 8VU      -0.105767
     28 H131         2.9130     0.4520    -2.3480 h1         1 8VU       0.104700
     29 H172         2.2460     2.5720     0.6440 h1         1 8VU       0.045200
     30 H171         1.9980     1.1730     1.7020 h1         1 8VU       0.045200
     31 H3           6.2210    -2.8000    -0.4260 hc         1 8VU       0.041811
     32 H1           5.7220    -4.4600    -0.0450 hc         1 8VU       0.041811
     33 H2           5.0260    -3.6370    -1.4450 hc         1 8VU       0.041811
     34 H5           5.5940    -2.2720     2.0690 hc         1 8VU       0.041811
     35 H6           3.9120    -2.4710     2.6040 hc         1 8VU       0.041811
     36 H4           4.9330    -3.8980     2.3370 hc         1 8VU       0.041811
     37 H021        -6.5710    -0.9090    -1.3220 ha         1 8VU       0.157000
     38 H051        -4.6380     3.1370     0.8690 ha         1 8VU       0.136000
     39 H072        -2.6580     1.8990     1.4680 hc         1 8VU       0.058200
     40 H071        -2.6700     0.1550     1.3670 hc         1 8VU       0.058200
     41 H7          -1.9100     0.2350    -0.9890 h1         1 8VU       0.093700
     42 H092        -0.2600     0.3950     1.0800 hc         1 8VU       0.057200
     43 H091        -0.0340     2.0250     0.6720 hc         1 8VU       0.057200
     44 H8           5.7150     2.2120    -0.0270 hn         1 8VU       0.322500
     45 H161         4.2960     2.3010     1.8640 h1         1 8VU       0.056700
     46 H162         4.3300     0.5450     1.5880 h1         1 8VU       0.056700
     47 H10         -2.9130     2.3720    -1.4710 hn         1 8VU       0.395500
     48 H9          -1.8510     3.1550    -0.5510 hn         1 8VU       0.395500
     49 H231         2.5750    -1.7940    -1.4330 h1         1 8VU       0.053200
     50 H232         4.2570    -1.5460    -1.9480 h1         1 8VU       0.053200
     51 H14          3.0640    -4.7690     0.8090 hc         1 8VU       0.041811
     52 H12          2.1010    -3.2810     0.8780 hc         1 8VU       0.041811
     53 H13          2.6510    -3.9250    -0.6870 hc         1 8VU       0.041811
     54 F21         -8.1900     1.1520    -1.1640 f          1 8VU      -0.151000
@<TRIPOS>BOND
     1     1    14 1   
     2     1    15 1   
     3     1    16 2   
     4     2    15 1   
     5     2    17 1   
     6     2    24 1   
     7     2    28 1   
     8     3    15 1   
     9     3    19 1   
    10     3    29 1   
    11     3    30 1   
    12     4    26 1   
    13     4    31 1   
    14     4    32 1   
    15     4    33 1   
    16     5    26 1   
    17     5    34 1   
    18     5    35 1   
    19     5    36 1   
    20     6     7 ar  
    21     6    11 ar  
    22     6    54 1   
    23     7     8 ar  
    24     7    37 1   
    25     8     9 ar  
    26     8    23 1   
    27     9    10 ar  
    28     9    12 1   
    29    10    11 ar  
    30    10    38 1   
    31    11    22 1   
    32    12    13 1   
    33    12    39 1   
    34    12    40 1   
    35    13    14 1   
    36    13    21 1   
    37    13    41 1   
    38    14    42 1   
    39    14    43 1   
    40    17    18 1   
    41    17    20 2   
    42    18    19 1   
    43    18    44 1   
    44    19    45 1   
    45    19    46 1   
    46    21    47 1   
    47    21    48 1   
    48    24    25 1   
    49    24    49 1   
    50    24    50 1   
    51    25    26 1   
    52    26    27 1   
    53    27    51 1   
    54    27    52 1   
    55    27    53 1   
@<TRIPOS>SUBSTRUCTURE
     1 8VU         1 TEMP              0 ****  ****    0 ROOT
