@<TRIPOS>MOLECULE
8VV
   41    41     1     0     0
SMALL
bcc


@<TRIPOS>ATOM
      1 C1           1.0910    -7.6390    50.5120 c3         1 8VV       0.017500
      2 C2           1.0170    -8.8330    49.5640 c3         1 8VV       0.025900
      3 C3           1.5460    -8.1230    51.9110 c          1 8VV       0.897600
      4 C9           2.3520   -10.5290    47.9370 cc         1 8VV       0.455100
      5 C12          2.1590   -11.0230    45.8780 cd         1 8VV       0.257600
      6 C13          2.1240   -12.2040    46.5720 cc         1 8VV      -0.260600
      7 C14          2.0570   -10.8210    44.4000 c3         1 8VV      -0.102700
      8 C15          3.1710   -11.4520    43.5560 c3         1 8VV       0.000500
      9 C16          2.6570   -11.7560    42.1120 c          1 8VV       0.915600
     10 O4           0.6640    -8.5590    52.6720 o          1 8VV      -0.820800
     11 O5           2.7740    -8.0710    52.1250 o          1 8VV      -0.820800
     12 N6           1.9290    -6.6100    49.9150 n8         1 8VV      -0.894800
     13 S7           2.6310    -9.6850    49.4780 sx         1 8VV       0.166300
     14 O8           2.6260   -10.7940    50.5010 o          1 8VV      -0.481200
     15 N10          2.2560   -11.8660    47.8860 na         1 8VV      -0.255900
     16 N11          2.3060    -9.9820    46.7520 nd         1 8VV      -0.658000
     17 O17          2.9030   -12.8920    41.6780 o          1 8VV      -0.778800
     18 O18          2.0290   -10.8400    41.5540 o          1 8VV      -0.778800
     19 N19          4.4610   -10.6320    43.5070 n4         1 8VV      -0.582800
     20 H1           0.0710    -7.2520    50.5820 h1         1 8VV       0.053700
     21 H2           0.7800    -8.4940    48.5550 h1         1 8VV       0.077700
     22 H3           0.2950    -9.5900    49.8770 h1         1 8VV       0.077700
     23 H4           2.0170   -13.2270    46.2510 h4         1 8VV       0.173000
     24 H5           1.9320    -9.7600    44.1820 hc         1 8VV       0.084700
     25 H6           1.1310   -11.2880    44.0570 hc         1 8VV       0.084700
     26 H7           3.4830   -12.3890    44.0200 hx         1 8VV       0.070700
     27 H8           3.5240    -8.7400    43.3010 hx         1 8VV       0.084033
     28 H9           5.2450    -8.7810    42.9040 hx         1 8VV       0.084033
     29 H10          4.0610    -9.4690    41.7750 hx         1 8VV       0.084033
     30 H11          5.6750   -12.3540    43.3160 hx         1 8VV       0.084033
     31 H12          5.1890   -11.6220    41.7720 hx         1 8VV       0.084033
     32 H13          6.4240   -10.8380    42.7730 hx         1 8VV       0.084033
     33 H15          4.3140    -9.6600    45.3890 hx         1 8VV       0.084033
     34 H16          5.0080   -11.2970    45.4440 hx         1 8VV       0.084033
     35 H17          5.9640    -9.9410    44.8100 hx         1 8VV       0.084033
     36 H18          1.7080    -5.7210    50.3470 hn         1 8VV       0.331300
     37 H19          2.8880    -6.7980    50.1880 hn         1 8VV       0.331300
     38 H22          2.2590   -12.4920    48.6780 hn         1 8VV       0.331700
     39 C20          4.3050    -9.3190    42.8190 c3         1 8VV       0.109100
     40 C22          5.5060   -11.4190    42.7880 c3         1 8VV       0.109100
     41 C23          4.9660   -10.3660    44.8850 c3         1 8VV       0.109100
@<TRIPOS>BOND
     1     1     2 1   
     2     1     3 1   
     3     1    12 1   
     4     1    20 1   
     5     2    13 1   
     6     2    21 1   
     7     2    22 1   
     8     3    10 1   
     9     3    11 1   
    10     4    13 1   
    11     4    15 1   
    12     4    16 2   
    13     5     6 2   
    14     5     7 1   
    15     5    16 1   
    16     6    15 1   
    17     6    23 1   
    18     7     8 1   
    19     7    24 1   
    20     7    25 1   
    21     8     9 1   
    22     8    19 1   
    23     8    26 1   
    24     9    17 1   
    25     9    18 1   
    26    12    36 1   
    27    12    37 1   
    28    13    14 2   
    29    15    38 1   
    30    19    39 1   
    31    19    40 1   
    32    19    41 1   
    33    27    39 1   
    34    28    39 1   
    35    29    39 1   
    36    30    40 1   
    37    31    40 1   
    38    32    40 1   
    39    33    41 1   
    40    34    41 1   
    41    35    41 1   
@<TRIPOS>SUBSTRUCTURE
     1 8VV         1 TEMP              0 ****  ****    0 ROOT
