@<TRIPOS>MOLECULE
8VV
   41    41     1     0     0
SMALL
No Charge or Current Charge


@<TRIPOS>ATOM
      1 C1           0.7460    -7.9010    50.9620 c3         1 8VV       0.017500
      2 C2           1.0480    -8.7780    49.7200 c3         1 8VV       0.025900
      3 C3           1.5150    -8.4330    52.2390 c          1 8VV       0.687000
      4 C9           2.5840    -9.7160    47.6550 cc         1 8VV       0.455100
      5 C12          2.2740   -10.5150    45.6770 cd         1 8VV       0.192300
      6 C13          2.3590   -11.6070    46.5030 cc         1 8VV      -0.228000
      7 C14          2.0680   -10.5110    44.1900 c3         1 8VV      -0.102700
      8 C15          3.0550   -11.4240    43.4020 c3         1 8VV      -0.027700
      9 C16          2.4240   -11.7710    42.0150 c          1 8VV       0.705000
     10 O4           1.1380    -9.4860    52.7360 o          1 8VV      -0.715500
     11 O5           2.3580    -7.7120    52.7600 o          1 8VV      -0.715500
     12 N6           0.8840    -6.4290    50.6350 n8         1 8VV      -1.005200
     13 S7           2.8270    -8.7060    49.1640 sx         1 8VV       0.193100
     14 O8           3.6610    -9.5690    50.1040 o          1 8VV      -0.508000
     15 N10          2.5650   -11.0850    47.7640 na         1 8VV      -0.255500
     16 N11          2.4150    -9.3470    46.3930 nd         1 8VV      -0.658000
     17 O17          2.2600   -12.9530    41.7480 o          1 8VV      -0.673500
     18 O18          2.1540   -10.8590    41.2450 o          1 8VV      -0.673500
     19 N19          4.5590   -10.9880    43.3750 n4         1 8VV      -0.470000
     20 H1          -0.3170    -8.0580    51.1890 h1         1 8VV       0.053700
     21 H2           0.4320    -8.4440    48.8750 h1         1 8VV       0.077700
     22 H3           0.8100    -9.8280    49.9290 h1         1 8VV       0.077700
     23 H4           2.2990   -12.6680    46.2910 h4         1 8VV       0.155000
     24 H5           2.1150    -9.4900    43.7960 hc         1 8VV       0.084700
     25 H6           1.0460   -10.8560    43.9960 hc         1 8VV       0.084700
     26 H7           3.0560   -12.3830    43.9230 hx         1 8VV       0.070700
     27 H8           4.1720    -8.8670    43.3770 hx         1 8VV       0.084033
     28 H9           5.7680    -9.3260    42.7230 hx         1 8VV       0.084033
     29 H10          4.2940    -9.5950    41.7500 hx         1 8VV       0.084033
     30 H11          5.2520   -12.9850    42.9560 hx         1 8VV       0.084033
     31 H12          4.9780   -11.9800    41.5060 hx         1 8VV       0.084033
     32 H13          6.4120   -11.6960    42.5290 hx         1 8VV       0.084033
     33 H15          4.6810   -10.2010    45.3790 hx         1 8VV       0.084033
     34 H16          5.0020   -11.9540    45.2500 hx         1 8VV       0.084033
     35 H17          6.2320   -10.7730    44.7160 hx         1 8VV       0.084033
     36 H18          0.5550    -5.8810    51.4410 hn         1 8VV       0.386500
     37 H19          1.8850    -6.1990    50.6070 hn         1 8VV       0.386500
     38 H22          2.6990   -11.5960    48.6290 hn         1 8VV       0.382000
     39 C20          4.7090    -9.5900    42.7600 c3         1 8VV       0.080900
     40 C22          5.3600   -11.9870    42.5290 c3         1 8VV       0.080900
     41 C23          5.1620   -10.9790    44.7850 c3         1 8VV       0.080900
@<TRIPOS>BOND
     1     1     2 1   
     2     1     3 1   
     3     1    12 1   
     4     1    20 1   
     5     2    13 1   
     6     2    21 1   
     7     2    22 1   
     8     3    10 1   
     9     3    11 1   
    10     4    13 1   
    11     4    15 1   
    12     4    16 2   
    13     5     6 2   
    14     5     7 1   
    15     5    16 1   
    16     6    15 1   
    17     6    23 1   
    18     7     8 1   
    19     7    24 1   
    20     7    25 1   
    21     8     9 1   
    22     8    19 1   
    23     8    26 1   
    24     9    17 1   
    25     9    18 1   
    26    12    36 1   
    27    12    37 1   
    28    13    14 2   
    29    15    38 1   
    30    19    39 1   
    31    19    40 1   
    32    19    41 1   
    33    27    39 1   
    34    28    39 1   
    35    29    39 1   
    36    30    40 1   
    37    31    40 1   
    38    32    40 1   
    39    33    41 1   
    40    34    41 1   
    41    35    41 1   
@<TRIPOS>SUBSTRUCTURE
     1 8VV         1 TEMP              0 ****  ****    0 ROOT
