@<TRIPOS>MOLECULE
8VW
   68    70     1     0     0
SMALL
abcg2


@<TRIPOS>ATOM
      1 O35         -2.7050    -4.0710    -0.9780 o          1 8VW      -0.594100
      2 C33         -2.9220    -3.6030     0.1260 c          1 8VW       0.614100
      3 C34         -4.1190    -4.0020     0.9490 c3         1 8VW      -0.179100
      4 N1          -2.1320    -2.6580     0.6930 ns         1 8VW      -0.504900
      5 C1,         -0.9900    -2.0970     0.0580 c6         1 8VW       0.320700
      6 C2,         -0.8680    -0.6070     0.3810 c6         1 8VW       0.016700
      7 N2          -2.0160     0.1310    -0.0860 ns         1 8VW      -0.504900
      8 C36         -3.0430     0.5000     0.7120 c          1 8VW       0.617700
      9 C38         -4.1600     1.2180     0.0260 ca         1 8VW      -0.118600
     10 C39         -3.9620     1.9730    -1.1320 ca         1 8VW      -0.128000
     11 C40         -5.0410     2.6170    -1.7110 ca         1 8VW      -0.077000
     12 C41         -6.3150     2.5200    -1.1660 ca         1 8VW      -0.177000
     13 C42         -6.5100     1.7720    -0.0060 ca         1 8VW       0.136100
     14 O44         -7.6980     1.6130     0.6030 os         1 8VW      -0.337100
     15 C45         -8.8370     2.2260     0.0320 c3         1 8VW       0.147900
     16 C43         -5.4240     1.1320     0.5900 ca         1 8VW      -0.094000
     17 O37         -3.0700     0.2730     1.9120 o          1 8VW      -0.594100
     18 O5,          0.1650    -2.7580     0.5120 os         1 8VW      -0.448000
     19 C5,          1.3360    -2.3550    -0.1640 c6         1 8VW       0.162300
     20 C6,          2.4670    -3.2400     0.3170 c3         1 8VW       0.169600
     21 O6,          2.1890    -4.5670    -0.0580 oh         1 8VW      -0.702000
     22 C4,          1.6200    -0.8690     0.1030 c6         1 8VW       0.150300
     23 C3,          0.4000    -0.0260    -0.2550 c6         1 8VW       0.160300
     24 O3,          0.6060     1.2940     0.1680 oh         1 8VW      -0.699000
     25 O1           2.7170    -0.4810    -0.7040 os         1 8VW      -0.447000
     26 C1           3.8140     0.0610    -0.0660 c6         1 8VW       0.380300
     27 C2           5.0170    -0.0070    -1.0060 c6         1 8VW       0.106300
     28 O2           5.4020    -1.3340    -1.2730 oh         1 8VW      -0.730000
     29 C3           6.2010     0.6900    -0.3390 c6         1 8VW       0.137300
     30 O3           7.3130     0.7690    -1.1950 oh         1 8VW      -0.665000
     31 C4           5.8290     2.1130     0.0810 c6         1 8VW       0.151300
     32 O4           5.5820     2.9340    -1.0330 oh         1 8VW      -0.707000
     33 C5           4.5730     2.0440     0.9370 c6         1 8VW       0.137300
     34 O5           3.5340     1.3950     0.2340 os         1 8VW      -0.463000
     35 C6           4.0110     3.3900     1.3630 c3         1 8VW       0.177600
     36 O6           2.8630     3.2340     2.1640 oh         1 8VW      -0.725000
     37 H1          -4.2650    -5.0790     0.8880 hc         1 8VW       0.063033
     38 H2          -4.0420    -3.7160     1.9960 hc         1 8VW       0.063033
     39 H3          -5.0080    -3.5260     0.5340 hc         1 8VW       0.063033
     40 H4          -2.3610    -2.3320     1.6190 hn         1 8VW       0.331500
     41 H5          -1.0970    -2.2290    -1.0270 h2         1 8VW       0.069700
     42 H6          -0.8000    -0.4870     1.4650 h1         1 8VW       0.106700
     43 H7          -2.1570     0.1690    -1.0850 hn         1 8VW       0.317500
     44 H8          -2.9790     2.0890    -1.5690 ha         1 8VW       0.114000
     45 H9          -4.8950     3.2120    -2.6020 ha         1 8VW       0.117000
     46 H10         -7.1330     3.0340    -1.6510 ha         1 8VW       0.121000
     47 H11         -9.6800     1.9620     0.6660 h1         1 8VW       0.043033
     48 H12         -8.7440     3.3150     0.0060 h1         1 8VW       0.043033
     49 H13         -9.0300     1.8640    -0.9810 h1         1 8VW       0.043033
     50 H14         -5.5810     0.5550     1.4930 ha         1 8VW       0.147000
     51 H15          1.2080    -2.4910    -1.2510 h1         1 8VW       0.063700
     52 H16          3.4050    -2.8860    -0.1230 h1         1 8VW       0.031200
     53 H17          2.5600    -3.1320     1.4070 h1         1 8VW       0.031200
     54 H18          2.9250    -5.1150     0.2290 ho         1 8VW       0.504000
     55 H19          1.8480    -0.7340     1.1700 h1         1 8VW       0.071700
     56 H20          0.2820    -0.0750    -1.3500 h1         1 8VW       0.040700
     57 H21         -0.1370     1.8270    -0.1340 ho         1 8VW       0.514000
     58 H22          4.0490    -0.4900     0.8650 h2         1 8VW       0.027700
     59 H23          4.7610     0.5280    -1.9300 h1         1 8VW       0.078700
     60 H24          4.8330    -1.6900    -1.9620 ho         1 8VW       0.524000
     61 H25          6.4530     0.1300     0.5770 h1         1 8VW       0.047700
     62 H26          7.4650    -0.1020    -1.5780 ho         1 8VW       0.469000
     63 H27          6.6430     2.5160     0.7010 h1         1 8VW       0.053700
     64 H28          6.3470     2.8800    -1.6160 ho         1 8VW       0.521000
     65 H29          4.8300     1.4730     1.8450 h1         1 8VW       0.044700
     66 H30          4.7580     3.9160     1.9600 h1         1 8VW       0.058200
     67 H31          3.8040     4.0050     0.4800 h1         1 8VW       0.058200
     68 H32          2.2290     2.7040     1.6670 ho         1 8VW       0.528000
@<TRIPOS>BOND
     1     1     2 2   
     2     2     3 1   
     3     2     4 1   
     4     3    37 1   
     5     3    38 1   
     6     3    39 1   
     7     4     5 1   
     8     4    40 1   
     9     5     6 1   
    10     5    18 1   
    11     5    41 1   
    12     6     7 1   
    13     6    23 1   
    14     6    42 1   
    15     7     8 1   
    16     7    43 1   
    17     8     9 1   
    18     8    17 2   
    19     9    10 ar  
    20     9    16 ar  
    21    10    11 ar  
    22    10    44 1   
    23    11    12 ar  
    24    11    45 1   
    25    12    13 ar  
    26    12    46 1   
    27    13    14 1   
    28    13    16 ar  
    29    14    15 1   
    30    15    47 1   
    31    15    48 1   
    32    15    49 1   
    33    16    50 1   
    34    18    19 1   
    35    19    20 1   
    36    19    22 1   
    37    19    51 1   
    38    20    21 1   
    39    20    52 1   
    40    20    53 1   
    41    21    54 1   
    42    22    23 1   
    43    22    25 1   
    44    22    55 1   
    45    23    24 1   
    46    23    56 1   
    47    24    57 1   
    48    25    26 1   
    49    26    27 1   
    50    26    34 1   
    51    26    58 1   
    52    27    28 1   
    53    27    29 1   
    54    27    59 1   
    55    28    60 1   
    56    29    30 1   
    57    29    31 1   
    58    29    61 1   
    59    30    62 1   
    60    31    32 1   
    61    31    33 1   
    62    31    63 1   
    63    32    64 1   
    64    33    34 1   
    65    33    35 1   
    66    33    65 1   
    67    35    36 1   
    68    35    66 1   
    69    35    67 1   
    70    36    68 1   
@<TRIPOS>SUBSTRUCTURE
     1 8VW         1 TEMP              0 ****  ****    0 ROOT
