@<TRIPOS>MOLECULE
8VW
   68    70     1     0     0
SMALL
No Charge or Current Charge


@<TRIPOS>ATOM
      1 O35         -2.3340    -4.6290    -1.3370 o          1 8VW      -0.594100
      2 C33         -2.7790    -4.0330    -0.3670 c          1 8VW       0.614100
      3 C34         -4.0510    -4.4670     0.3480 c3         1 8VW      -0.179100
      4 N1          -2.1890    -2.9120     0.1520 ns         1 8VW      -0.504900
      5 C1,         -0.9640    -2.2960    -0.3270 c6         1 8VW       0.320700
      6 C2,         -0.7450    -0.9020     0.3290 c6         1 8VW       0.016700
      7 N2          -1.8610     0.0420     0.0500 ns         1 8VW      -0.504900
      8 C36         -3.0660     0.0850     0.7230 c          1 8VW       0.617700
      9 C38         -4.0790     1.1090     0.2510 ca         1 8VW      -0.118600
     10 C39         -3.8150     2.0000    -0.8190 ca         1 8VW      -0.128000
     11 C40         -4.7830     2.9330    -1.2270 ca         1 8VW      -0.077000
     12 C41         -6.0270     2.9950    -0.5790 ca         1 8VW      -0.177000
     13 C42         -6.3070     2.1170     0.4880 ca         1 8VW       0.136100
     14 O44         -7.5100     2.1300     1.1650 os         1 8VW      -0.337100
     15 C45         -8.5700     3.0440     0.8290 c3         1 8VW       0.147900
     16 C43         -5.3360     1.1850     0.8930 ca         1 8VW      -0.094000
     17 O37         -3.2910    -0.6800     1.6510 o          1 8VW      -0.594100
     18 O5,          0.1160    -3.1530     0.0650 os         1 8VW      -0.448000
     19 C5,          1.4090    -2.7370    -0.4400 c6         1 8VW       0.162300
     20 C6,          2.4600    -3.8340    -0.0610 c3         1 8VW       0.169600
     21 O6,          2.1100    -5.1510    -0.5330 oh         1 8VW      -0.702000
     22 C4,          1.7980    -1.3290     0.1120 c6         1 8VW       0.150300
     23 C3,          0.6140    -0.3190    -0.1610 c6         1 8VW       0.160300
     24 O3,          0.8010     0.9700     0.4620 oh         1 8VW      -0.699000
     25 O1           3.0750    -0.9440    -0.4830 os         1 8VW      -0.447000
     26 C1           3.7740     0.1660     0.1100 c6         1 8VW       0.380300
     27 C2           5.3230     0.0200    -0.0760 c6         1 8VW       0.106300
     28 O2           5.8520    -1.1970     0.5100 oh         1 8VW      -0.730000
     29 C3           6.0360     1.2730     0.5290 c6         1 8VW       0.137300
     30 O3           7.4520     1.1920     0.2850 oh         1 8VW      -0.665000
     31 C4           5.4530     2.6020    -0.0560 c6         1 8VW       0.151300
     32 O4           5.8760     2.7360    -1.4280 oh         1 8VW      -0.707000
     33 C5           3.8970     2.5600     0.0910 c6         1 8VW       0.137300
     34 O5           3.3570     1.3750    -0.5340 os         1 8VW      -0.463000
     35 C6           3.1400     3.7670    -0.5260 c3         1 8VW       0.177600
     36 O6           1.7190     3.5390    -0.4800 oh         1 8VW      -0.725000
     37 H1          -4.5060    -5.3560    -0.1020 hc         1 8VW       0.063033
     38 H2          -3.8290    -4.6190     1.4100 hc         1 8VW       0.063033
     39 H3          -4.7510    -3.6230     0.3750 hc         1 8VW       0.063033
     40 H4          -2.6660    -2.4580     0.9230 hn         1 8VW       0.331500
     41 H5          -1.0060    -2.2050    -1.4240 h2         1 8VW       0.069700
     42 H6          -0.6840    -1.0560     1.4180 h1         1 8VW       0.106700
     43 H7          -1.7650     0.6820    -0.7290 hn         1 8VW       0.317500
     44 H8          -2.8650     1.9850    -1.3470 ha         1 8VW       0.114000
     45 H9          -4.5670     3.6110    -2.0500 ha         1 8VW       0.117000
     46 H10         -6.7550     3.7270    -0.9160 ha         1 8VW       0.121000
     47 H11         -9.4330     2.8840     1.4880 h1         1 8VW       0.043033
     48 H12         -8.2410     4.0840     0.9470 h1         1 8VW       0.043033
     49 H13         -8.9020     2.8930    -0.2070 h1         1 8VW       0.043033
     50 H14         -5.5700     0.5160     1.7170 ha         1 8VW       0.147000
     51 H15          1.3560    -2.6870    -1.5370 h1         1 8VW       0.063700
     52 H16          3.4320    -3.5400    -0.4790 h1         1 8VW       0.031200
     53 H17          2.5650    -3.8430     1.0320 h1         1 8VW       0.031200
     54 H18          2.7820    -5.7750    -0.1730 ho         1 8VW       0.504000
     55 H19          1.9350    -1.4210     1.1990 h1         1 8VW       0.071700
     56 H20          0.5450    -0.1820    -1.2500 h1         1 8VW       0.040700
     57 H21         -0.0210     1.1520     0.9730 ho         1 8VW       0.514000
     58 H22          3.5420     0.2130     1.1850 h2         1 8VW       0.027700
     59 H23          5.5100     0.0160    -1.1610 h1         1 8VW       0.078700
     60 H24          5.3330    -1.9410     0.1220 ho         1 8VW       0.524000
     61 H25          5.8500     1.2750     1.6140 h1         1 8VW       0.047700
     62 H26          7.6840     0.2520     0.4710 ho         1 8VW       0.469000
     63 H27          5.8380     3.4440     0.5390 h1         1 8VW       0.053700
     64 H28          6.7950     2.3730    -1.4310 ho         1 8VW       0.521000
     65 H29          3.6470     2.5320     1.1620 h1         1 8VW       0.044700
     66 H30          3.4100     4.6780     0.0260 h1         1 8VW       0.058200
     67 H31          3.4710     3.8960    -1.5660 h1         1 8VW       0.058200
     68 H32          1.6240     2.5560    -0.3380 ho         1 8VW       0.528000
@<TRIPOS>BOND
     1     1     2 2   
     2     2     3 1   
     3     2     4 1   
     4     3    37 1   
     5     3    38 1   
     6     3    39 1   
     7     4     5 1   
     8     4    40 1   
     9     5     6 1   
    10     5    18 1   
    11     5    41 1   
    12     6     7 1   
    13     6    23 1   
    14     6    42 1   
    15     7     8 1   
    16     7    43 1   
    17     8     9 1   
    18     8    17 2   
    19     9    10 ar  
    20     9    16 ar  
    21    10    11 ar  
    22    10    44 1   
    23    11    12 ar  
    24    11    45 1   
    25    12    13 ar  
    26    12    46 1   
    27    13    14 1   
    28    13    16 ar  
    29    14    15 1   
    30    15    47 1   
    31    15    48 1   
    32    15    49 1   
    33    16    50 1   
    34    18    19 1   
    35    19    20 1   
    36    19    22 1   
    37    19    51 1   
    38    20    21 1   
    39    20    52 1   
    40    20    53 1   
    41    21    54 1   
    42    22    23 1   
    43    22    25 1   
    44    22    55 1   
    45    23    24 1   
    46    23    56 1   
    47    24    57 1   
    48    25    26 1   
    49    26    27 1   
    50    26    34 1   
    51    26    58 1   
    52    27    28 1   
    53    27    29 1   
    54    27    59 1   
    55    28    60 1   
    56    29    30 1   
    57    29    31 1   
    58    29    61 1   
    59    30    62 1   
    60    31    32 1   
    61    31    33 1   
    62    31    63 1   
    63    32    64 1   
    64    33    34 1   
    65    33    35 1   
    66    33    65 1   
    67    35    36 1   
    68    35    66 1   
    69    35    67 1   
    70    36    68 1   
@<TRIPOS>SUBSTRUCTURE
     1 8VW         1 TEMP              0 ****  ****    0 ROOT
