@<TRIPOS>MOLECULE
8VX
   66    68     1     0     0
SMALL
bcc


@<TRIPOS>ATOM
      1 C1          -0.9150    -0.0330     0.9770 c          1 8VX       0.706500
      2 O2          -0.1020    -0.7850     1.4910 o          1 8VX      -0.626500
      3 C9          -5.0110    -3.9580     0.3170 ca         1 8VX      -0.009600
      4 C10         -3.9250    -3.1200     0.1220 ca         1 8VX      -0.085000
      5 C8          -6.2980    -3.4900     0.1310 ca         1 8VX      -0.079000
      6 C7          -6.4930    -2.1720    -0.2550 ca         1 8VX      -0.213000
      7 C6          -5.4070    -1.3210    -0.4520 ca         1 8VX       0.149100
      8 O23         -5.5280    -0.0360    -0.8240 os         1 8VX      -0.309900
      9 C24         -6.8190     0.5080    -0.9980 c3         1 8VX       0.123700
     10 C5          -4.1010    -1.7980    -0.2600 ca         1 8VX      -0.115300
     11 C4          -2.8900    -0.9170    -0.4260 c3         1 8VX      -0.007100
     12 C3          -2.3920    -0.3940     0.9360 c3         1 8VX      -0.146700
     13 C11         -3.2510     0.6950     1.5710 c3         1 8VX       0.241800
     14 N12         -3.4700     1.8950     0.7960 nu         1 8VX      -0.851200
     15 C13         -2.5690     2.5960     0.0830 c2         1 8VX       0.621200
     16 N14         -2.7250     3.8150    -0.3060 n2         1 8VX      -0.612400
     17 N62         -3.9560     4.3800     0.1290 nh         1 8VX      -0.424700
     18 C63         -3.7030     5.7430     0.5450 c3         1 8VX       0.143600
     19 C68         -4.9040     4.3420    -0.9720 c3         1 8VX       0.143600
     20 C15         -1.3380     1.9220    -0.4540 c3         1 8VX       0.054700
     21 N16         -0.5430     1.1860     0.5140 n          1 8VX      -0.451800
     22 C17          0.8430     1.5380     0.6650 c3         1 8VX       0.015000
     23 C19          1.7340     0.7490    -0.2870 c          1 8VX       0.661100
     24 O30          1.2920     0.2090    -1.2800 o          1 8VX      -0.575100
     25 N20          3.0400     0.7610     0.0780 ns         1 8VX      -0.470100
     26 C21          4.1490     0.2320    -0.5810 ca         1 8VX       0.063600
     27 C25          5.3960     0.4940    -0.0110 ca         1 8VX      -0.100000
     28 C29          4.0860    -0.5290    -1.7500 ca         1 8VX      -0.100000
     29 C28          5.2520    -1.0100    -2.3280 ca         1 8VX      -0.119000
     30 C27          6.4950    -0.7540    -1.7720 ca         1 8VX      -0.066000
     31 C26          6.5400    -0.0010    -0.6080 ca         1 8VX      -0.233500
     32 S31          8.1120     0.3400     0.1480 sy         1 8VX       1.087300
     33 O32          9.1310     0.3380    -0.8990 o          1 8VX      -0.594800
     34 O33          7.9690     1.5270     0.9880 o          1 8VX      -0.594800
     35 C72          8.3870    -1.0660     1.2000 c3         1 8VX      -0.225300
     36 H1          -2.9190    -3.4970     0.2690 ha         1 8VX       0.153000
     37 H2          -7.1520    -4.1370     0.2810 ha         1 8VX       0.147000
     38 H3          -7.5080    -1.8270    -0.3980 ha         1 8VX       0.140000
     39 H4          -6.6790     1.5500    -1.2720 h1         1 8VX       0.042367
     40 H5          -7.3710     0.0080    -1.7980 h1         1 8VX       0.042367
     41 H6          -7.4100     0.4640    -0.0800 h1         1 8VX       0.042367
     42 H7          -2.0950    -1.5110    -0.8840 hc         1 8VX       0.067700
     43 H8          -3.1080    -0.1070    -1.1190 hc         1 8VX       0.067700
     44 H9          -2.4580    -1.2350     1.6300 hc         1 8VX       0.085700
     45 H10         -4.2350     0.2720     1.7720 h1         1 8VX       0.044700
     46 H11         -2.8190     0.9350     2.5500 h1         1 8VX       0.044700
     47 H13         -3.2770     6.3630    -0.2570 h1         1 8VX       0.035533
     48 H14         -4.6380     6.2020     0.8690 h1         1 8VX       0.035533
     49 H15         -3.0140     5.7540     1.3890 h1         1 8VX       0.035533
     50 H16         -5.1020     3.3100    -1.2620 h1         1 8VX       0.035533
     51 H17         -5.8470     4.7870    -0.6530 h1         1 8VX       0.035533
     52 H18         -4.5490     4.8840    -1.8600 h1         1 8VX       0.035533
     53 H19         -1.6140     1.2840    -1.2950 h1         1 8VX       0.080200
     54 H20         -0.7180     2.7090    -0.8730 h1         1 8VX       0.080200
     55 H21          0.9630     2.6010     0.4470 h1         1 8VX       0.079200
     56 H22          1.1620     1.3950     1.6980 h1         1 8VX       0.079200
     57 H23          3.2550     1.2500     0.9350 hn         1 8VX       0.321500
     58 H24          5.4610     1.0900     0.8910 ha         1 8VX       0.151000
     59 H25          3.1390    -0.7480    -2.2150 ha         1 8VX       0.171000
     60 H26          5.1840    -1.5950    -3.2350 ha         1 8VX       0.141000
     61 H27          7.3950    -1.1310    -2.2380 ha         1 8VX       0.156000
     62 H28          8.4090    -1.9700     0.5970 h1         1 8VX       0.103033
     63 H29          9.3500    -0.9210     1.6890 h1         1 8VX       0.103033
     64 H30          7.5950    -1.1240     1.9430 h1         1 8VX       0.103033
     65 H12         -4.2370     2.4720     1.1160 hn         1 8VX       0.444800
     66 CL2         -4.7480    -5.6070     0.7920 cl         1 8VX      -0.109400
@<TRIPOS>BOND
     1     1     2 2   
     2     1    12 1   
     3     1    21 1   
     4     3     4 ar  
     5     3     5 ar  
     6     3    66 1   
     7     4    10 ar  
     8     4    36 1   
     9     5     6 ar  
    10     5    37 1   
    11     6     7 ar  
    12     6    38 1   
    13     7     8 1   
    14     7    10 ar  
    15     8     9 1   
    16     9    39 1   
    17     9    40 1   
    18     9    41 1   
    19    10    11 1   
    20    11    12 1   
    21    11    42 1   
    22    11    43 1   
    23    12    13 1   
    24    12    44 1   
    25    13    14 1   
    26    13    45 1   
    27    13    46 1   
    28    14    15 1   
    29    14    65 1   
    30    15    16 2   
    31    15    20 1   
    32    16    17 1   
    33    17    18 1   
    34    17    19 1   
    35    18    47 1   
    36    18    48 1   
    37    18    49 1   
    38    19    50 1   
    39    19    51 1   
    40    19    52 1   
    41    20    21 1   
    42    20    53 1   
    43    20    54 1   
    44    21    22 1   
    45    22    23 1   
    46    22    55 1   
    47    22    56 1   
    48    23    24 2   
    49    23    25 1   
    50    25    26 1   
    51    25    57 1   
    52    26    27 ar  
    53    26    28 ar  
    54    27    31 ar  
    55    27    58 1   
    56    28    29 ar  
    57    28    59 1   
    58    29    30 ar  
    59    29    60 1   
    60    30    31 ar  
    61    30    61 1   
    62    31    32 1   
    63    32    33 2   
    64    32    34 2   
    65    32    35 1   
    66    35    62 1   
    67    35    63 1   
    68    35    64 1   
@<TRIPOS>SUBSTRUCTURE
     1 8VX         1 TEMP              0 ****  ****    0 ROOT
