@<TRIPOS>MOLECULE
8VX
   66    68     1     0     0
SMALL
No Charge or Current Charge


@<TRIPOS>ATOM
      1 C1          -1.0320    -0.4420     1.0960 c          1 8VX       0.564000
      2 O2          -0.2910    -1.2370     1.6610 o          1 8VX      -0.551000
      3 C9          -6.0400    -3.5070     0.8320 ca         1 8VX       0.082000
      4 C10         -4.7480    -2.9860     0.6630 ca         1 8VX      -0.067000
      5 C8          -7.1420    -2.8550     0.2600 ca         1 8VX      -0.061000
      6 C7          -6.9520    -1.6810    -0.4880 ca         1 8VX      -0.195000
      7 C6          -5.6540    -1.1480    -0.6650 ca         1 8VX       0.149100
      8 O23         -5.4400     0.0010    -1.4040 os         1 8VX      -0.333100
      9 C24         -6.5130     0.7630    -1.9840 c3         1 8VX       0.146900
     10 C5          -4.5420    -1.8030    -0.0780 ca         1 8VX      -0.115300
     11 C4          -3.1140    -1.2650    -0.2260 c3         1 8VX      -0.007100
     12 C3          -2.5500    -0.6830     1.1050 c3         1 8VX      -0.146700
     13 C11         -3.3020     0.5390     1.6640 c3         1 8VX       0.241800
     14 N12         -3.4770     1.6410     0.7150 nu         1 8VX      -0.906400
     15 C13         -2.4950     2.3250     0.0190 c2         1 8VX       0.621200
     16 N14         -2.6810     3.5750    -0.3010 n2         1 8VX      -0.612400
     17 N62         -3.8580     4.1620     0.1260 nh         1 8VX      -0.424700
     18 C63         -3.7860     5.1480     1.2280 c3         1 8VX       0.143600
     19 C68         -4.8970     4.4470    -0.8890 c3         1 8VX       0.143600
     20 C15         -1.2510     1.5630    -0.4410 c3         1 8VX       0.054700
     21 N16         -0.5070     0.7610     0.5720 n          1 8VX      -0.384800
     22 C17          0.9490     1.0650     0.7310 c3         1 8VX       0.015000
     23 C19          1.8900     0.3680    -0.2770 c          1 8VX       0.594100
     24 O30          1.4700    -0.3160    -1.2070 o          1 8VX      -0.575100
     25 N20          3.2370     0.6090    -0.0340 ns         1 8VX      -0.144000
     26 C21          4.4240     0.1760    -0.6920 ca         1 8VX      -0.029000
     27 C25          5.6520     0.6720    -0.2100 ca         1 8VX      -0.082000
     28 C29          4.4300    -0.7200    -1.7840 ca         1 8VX      -0.082000
     29 C28          5.6430    -1.1060    -2.3790 ca         1 8VX      -0.101000
     30 C27          6.8630    -0.6060    -1.8960 ca         1 8VX      -0.048000
     31 C26          6.8730     0.2900    -0.8080 ca         1 8VX      -0.233500
     32 S31          8.4440     0.9280    -0.1710 sy         1 8VX       1.056500
     33 O32          9.4610     0.8310    -1.2260 o          1 8VX      -0.524000
     34 O33          8.1950     2.1930     0.5330 o          1 8VX      -0.524000
     35 C72          8.8920    -0.2730     1.0820 c3         1 8VX      -0.336100
     36 H1          -3.9050    -3.5050     1.1110 ha         1 8VX       0.135000
     37 H2          -8.1410    -3.2630     0.3930 ha         1 8VX       0.129000
     38 H3          -7.8240    -1.2020    -0.9230 ha         1 8VX       0.122000
     39 H4          -6.1140     1.6350    -2.5150 h1         1 8VX       0.042367
     40 H5          -7.0780     0.1570    -2.7030 h1         1 8VX       0.042367
     41 H6          -7.2000     1.1220    -1.2070 h1         1 8VX       0.042367
     42 H7          -2.4590    -2.0850    -0.5490 hc         1 8VX       0.067700
     43 H8          -3.0590    -0.5250    -1.0280 hc         1 8VX       0.067700
     44 H9          -2.6890    -1.4760     1.8490 hc         1 8VX       0.085700
     45 H10         -4.2960     0.2070     1.9950 h1         1 8VX       0.044700
     46 H11         -2.7760     0.9030     2.5570 h1         1 8VX       0.044700
     47 H13         -3.4020     6.1080     0.8580 h1         1 8VX       0.035533
     48 H14         -4.7810     5.3130     1.6620 h1         1 8VX       0.035533
     49 H15         -3.1200     4.7890     2.0230 h1         1 8VX       0.035533
     50 H16         -4.9560     3.6310    -1.6210 h1         1 8VX       0.035533
     51 H17         -5.8800     4.5520    -0.4120 h1         1 8VX       0.035533
     52 H18         -4.6660     5.3790    -1.4230 h1         1 8VX       0.035533
     53 H19         -1.5240     0.9130    -1.2780 h1         1 8VX       0.080200
     54 H20         -0.5620     2.3010    -0.8690 h1         1 8VX       0.080200
     55 H21          1.1100     2.1470     0.6390 h1         1 8VX       0.079200
     56 H22          1.2740     0.7810     1.7400 h1         1 8VX       0.079200
     57 H23          3.4100     1.2060     0.7640 hn         1 8VX       0.155000
     58 H24          5.6550     1.3590     0.6350 ha         1 8VX       0.133000
     59 H25          3.5100    -1.1340    -2.1860 ha         1 8VX       0.153000
     60 H26          5.6380    -1.7980    -3.2190 ha         1 8VX       0.123000
     61 H27          7.7930    -0.9180    -2.3680 ha         1 8VX       0.138000
     62 H28          8.9890    -1.2500     0.5980 h1         1 8VX       0.103033
     63 H29          9.8420     0.0370     1.5270 h1         1 8VX       0.103033
     64 H30          8.0980    -0.2920     1.8350 h1         1 8VX       0.103033
     65 H12         -4.2600     2.2670     0.8790 hn         1 8VX       0.500000
     66 Cl2         -6.2770    -4.9800     1.7630 cl         1 8VX      -0.201000
@<TRIPOS>BOND
     1     1     2 2   
     2     1    12 1   
     3     1    21 1   
     4     3     4 ar  
     5     3     5 ar  
     6     3    66 1   
     7     4    10 ar  
     8     4    36 1   
     9     5     6 ar  
    10     5    37 1   
    11     6     7 ar  
    12     6    38 1   
    13     7     8 1   
    14     7    10 ar  
    15     8     9 1   
    16     9    39 1   
    17     9    40 1   
    18     9    41 1   
    19    10    11 1   
    20    11    12 1   
    21    11    42 1   
    22    11    43 1   
    23    12    13 1   
    24    12    44 1   
    25    13    14 1   
    26    13    45 1   
    27    13    46 1   
    28    14    15 1   
    29    14    65 1   
    30    15    16 2   
    31    15    20 1   
    32    16    17 1   
    33    17    18 1   
    34    17    19 1   
    35    18    47 1   
    36    18    48 1   
    37    18    49 1   
    38    19    50 1   
    39    19    51 1   
    40    19    52 1   
    41    20    21 1   
    42    20    53 1   
    43    20    54 1   
    44    21    22 1   
    45    22    23 1   
    46    22    55 1   
    47    22    56 1   
    48    23    24 2   
    49    23    25 1   
    50    25    26 1   
    51    25    57 1   
    52    26    27 ar  
    53    26    28 ar  
    54    27    31 ar  
    55    27    58 1   
    56    28    29 ar  
    57    28    59 1   
    58    29    30 ar  
    59    29    60 1   
    60    30    31 ar  
    61    30    61 1   
    62    31    32 1   
    63    32    33 2   
    64    32    34 2   
    65    32    35 1   
    66    35    62 1   
    67    35    63 1   
    68    35    64 1   
@<TRIPOS>SUBSTRUCTURE
     1 8VX         1 TEMP              0 ****  ****    0 ROOT
