@<TRIPOS>MOLECULE
8VY
   18    18     1     0     0
SMALL
abcg2


@<TRIPOS>ATOM
      1 C1           1.0580    -0.5260    -0.5750 ca         1 8VY      -0.092300
      2 C2          -0.0040     0.1660    -0.0030 ca         1 8VY      -0.074000
      3 C3          -1.0670    -0.5150     0.5800 ca         1 8VY      -0.092300
      4 C4          -1.0620    -1.9070     0.5880 ca         1 8VY      -0.083000
      5 C5          -0.0060    -2.6050     0.0200 ca         1 8VY      -0.108000
      6 C6           1.0500    -1.9190    -0.5590 ca         1 8VY      -0.083000
      7 C7           2.1910     0.2130    -1.1960 c3         1 8VY       0.145400
      8 C8          -2.1990     0.2380     1.1890 c3         1 8VY       0.145400
      9 BR1          3.6190     0.5420     0.1410 br         1 8VY      -0.274500
     10 H1          -0.0030     1.2510    -0.0120 ha         1 8VY       0.119000
     11 H2          -1.8850    -2.4460     1.0400 ha         1 8VY       0.118000
     12 H3          -0.0070    -3.6870     0.0290 ha         1 8VY       0.119000
     13 H4           1.8730    -2.4660    -1.0020 ha         1 8VY       0.118000
     14 H5           2.6610    -0.3500    -2.0000 h1         1 8VY       0.079200
     15 H6           1.8970     1.1940    -1.5660 h1         1 8VY       0.079200
     16 H7          -2.6670    -0.3080     2.0060 h1         1 8VY       0.079200
     17 H8          -1.9040     1.2260     1.5340 h1         1 8VY       0.079200
     18 BR2         -3.6310     0.5380    -0.1520 br         1 8VY      -0.274500
@<TRIPOS>BOND
     1     1     2 ar  
     2     1     6 ar  
     3     1     7 1   
     4     2     3 ar  
     5     2    10 1   
     6     3     4 ar  
     7     3     8 1   
     8     4     5 ar  
     9     4    11 1   
    10     5     6 ar  
    11     5    12 1   
    12     6    13 1   
    13     7     9 1   
    14     7    14 1   
    15     7    15 1   
    16     8    16 1   
    17     8    17 1   
    18     8    18 1   
@<TRIPOS>SUBSTRUCTURE
     1 8VY         1 TEMP              0 ****  ****    0 ROOT
