@<TRIPOS>MOLECULE
8VY
   18    18     1     0     0
SMALL
No Charge or Current Charge


@<TRIPOS>ATOM
      1 C1           1.0690    -0.5340    -0.5820 ca         1 8VY      -0.092300
      2 C2          -0.0040     0.1700    -0.0040 ca         1 8VY      -0.074000
      3 C3          -1.0790    -0.5230     0.5870 ca         1 8VY      -0.092300
      4 C4          -1.0760    -1.9300     0.5960 ca         1 8VY      -0.083000
      5 C5          -0.0060    -2.6370     0.0220 ca         1 8VY      -0.108000
      6 C6           1.0650    -1.9420    -0.5650 ca         1 8VY      -0.083000
      7 C7           2.2290     0.2220    -1.2160 c3         1 8VY       0.145400
      8 C8          -2.2370     0.2460     1.2080 c3         1 8VY       0.145400
      9 Br1          3.6110     0.6870     0.1420 br         1 8VY      -0.274500
     10 H1          -0.0040     1.2590    -0.0140 ha         1 8VY       0.119000
     11 H2          -1.9020    -2.4780     1.0460 ha         1 8VY       0.118000
     12 H3          -0.0060    -3.7250     0.0310 ha         1 8VY       0.119000
     13 H4           1.8900    -2.4980    -1.0050 ha         1 8VY       0.118000
     14 H5           2.7250    -0.3830    -1.9850 h1         1 8VY       0.079200
     15 H6           1.8880     1.1650    -1.6630 h1         1 8VY       0.079200
     16 H7          -2.7350    -0.3450     1.9870 h1         1 8VY       0.079200
     17 H8          -1.8950     1.1960     1.6380 h1         1 8VY       0.079200
     18 Br2         -3.6180     0.6890    -0.1590 br         1 8VY      -0.274500
@<TRIPOS>BOND
     1     1     2 ar  
     2     1     6 ar  
     3     1     7 1   
     4     2     3 ar  
     5     2    10 1   
     6     3     4 ar  
     7     3     8 1   
     8     4     5 ar  
     9     4    11 1   
    10     5     6 ar  
    11     5    12 1   
    12     6    13 1   
    13     7     9 1   
    14     7    14 1   
    15     7    15 1   
    16     8    16 1   
    17     8    17 1   
    18     8    18 1   
@<TRIPOS>SUBSTRUCTURE
     1 8VY         1 TEMP              0 ****  ****    0 ROOT
