@<TRIPOS>MOLECULE
8VZ
   57    58     1     0     0
SMALL
No Charge or Current Charge


@<TRIPOS>ATOM
      1 O26          4.5600    -2.4980     0.2930 o          1 8VZ      -0.602100
      2 C24          4.2920    -2.4400    -0.8970 c          1 8VZ       0.606100
      3 C25          5.1090    -3.1570    -1.9610 c3         1 8VZ      -0.181100
      4 N2           3.2280    -1.7060    -1.3730 ns         1 8VZ      -0.510900
      5 C2,          2.3090    -0.8840    -0.5380 c6         1 8VZ       0.015700
      6 C1,          2.9000     0.5270    -0.2330 c6         1 8VZ       0.323700
      7 N1           4.1460     0.4170     0.5050 ns         1 8VZ      -0.502900
      8 C27          5.0250     1.4380     0.7500 c          1 8VZ       0.612100
      9 C28          6.2430     1.0410     1.5720 c3         1 8VZ      -0.179100
     10 O29          4.8590     2.5730     0.3270 o          1 8VZ      -0.595100
     11 C3,          0.9260    -0.7040    -1.2270 c6         1 8VZ       0.164300
     12 O3,          0.3440    -1.9930    -1.5030 oh         1 8VZ      -0.681000
     13 C4,         -0.0240     0.1840    -0.3570 c6         1 8VZ       0.149300
     14 C5,          0.7010     1.5320    -0.0250 c6         1 8VZ       0.156300
     15 C6,         -0.1020     2.4830     0.9240 c3         1 8VZ       0.168600
     16 O6,          0.6330     3.6590     1.3150 oh         1 8VZ      -0.702000
     17 O5,          1.9800     1.2500     0.6010 os         1 8VZ      -0.449000
     18 O1          -1.2960     0.3750    -1.0380 os         1 8VZ      -0.444000
     19 C1          -2.4700     0.4400    -0.1990 c6         1 8VZ       0.375300
     20 C2          -3.7090     0.8750    -1.0480 c6         1 8VZ       0.105300
     21 O2          -3.5200     2.1590    -1.6970 oh         1 8VZ      -0.731000
     22 C3          -4.9710     0.9030    -0.1340 c6         1 8VZ       0.139300
     23 O3          -6.1320     1.2330    -0.9190 oh         1 8VZ      -0.667000
     24 C4          -5.1690    -0.4660     0.5890 c6         1 8VZ       0.145300
     25 O4          -5.5830    -1.4510    -0.3800 oh         1 8VZ      -0.708000
     26 C5          -3.8340    -0.8530     1.3130 c6         1 8VZ       0.181300
     27 O5          -2.7200    -0.8530     0.3800 os         1 8VZ      -0.438000
     28 C6          -3.9080    -2.2500     2.0130 c3         1 8VZ       0.174600
     29 O6          -2.7080    -2.5870     2.7420 oh         1 8VZ      -0.715000
     30 H1           4.4430    -3.7950    -2.5530 hc         1 8VZ       0.063367
     31 H2           5.4500    -2.4240    -2.7010 hc         1 8VZ       0.063367
     32 H3           5.9450    -3.7240    -1.5380 hc         1 8VZ       0.063367
     33 H4           3.1300    -1.6740    -2.3830 hn         1 8VZ       0.312500
     34 H5           2.1530    -1.4000     0.4220 h1         1 8VZ       0.107700
     35 H6           3.0790     1.0780    -1.1700 h2         1 8VZ       0.067700
     36 H7           4.4030    -0.5010     0.8510 hn         1 8VZ       0.330500
     37 H8           5.9070     0.6030     2.5190 hc         1 8VZ       0.062367
     38 H9           6.7410     0.1940     1.0880 hc         1 8VZ       0.062367
     39 H10          6.9330     1.8770     1.7350 hc         1 8VZ       0.062367
     40 H11          1.0940    -0.1780    -2.1780 h1         1 8VZ       0.034700
     41 H12          1.0920    -2.6080    -1.6720 ho         1 8VZ       0.506000
     42 H13         -0.2020    -0.3530     0.5860 h1         1 8VZ       0.081700
     43 H14          0.8850     2.0770    -0.9620 h1         1 8VZ       0.059700
     44 H15         -1.0190     2.7900     0.4030 h1         1 8VZ       0.031200
     45 H16         -0.4000     1.9110     1.8130 h1         1 8VZ       0.031200
     46 H17          0.0790     4.1450     1.9690 ho         1 8VZ       0.504000
     47 H18         -2.3160     1.1700     0.6060 h2         1 8VZ       0.025700
     48 H19         -3.8580     0.0960    -1.8120 h1         1 8VZ       0.078700
     49 H20         -2.6720     2.0940    -2.1990 ho         1 8VZ       0.524000
     50 H21         -4.8160     1.6740     0.6360 h1         1 8VZ       0.047700
     51 H22         -5.8310     1.9580    -1.5160 ho         1 8VZ       0.469000
     52 H23         -5.9520    -0.3430     1.3520 h1         1 8VZ       0.050700
     53 H24         -6.1870    -0.9540    -0.9860 ho         1 8VZ       0.521000
     54 H25         -3.6310    -0.1060     2.0950 h1         1 8VZ       0.046700
     55 H26         -4.7700    -2.2440     2.6940 h1         1 8VZ       0.038700
     56 H27         -4.1060    -3.0110     1.2460 h1         1 8VZ       0.038700
     57 H28         -2.8190    -3.5100     3.0690 ho         1 8VZ       0.506000
@<TRIPOS>BOND
     1     1     2 2   
     2     2     3 1   
     3     2     4 1   
     4     3    30 1   
     5     3    31 1   
     6     3    32 1   
     7     4     5 1   
     8     4    33 1   
     9     5     6 1   
    10     5    11 1   
    11     5    34 1   
    12     6     7 1   
    13     6    17 1   
    14     6    35 1   
    15     7     8 1   
    16     7    36 1   
    17     8     9 1   
    18     8    10 2   
    19     9    37 1   
    20     9    38 1   
    21     9    39 1   
    22    11    12 1   
    23    11    13 1   
    24    11    40 1   
    25    12    41 1   
    26    13    14 1   
    27    13    18 1   
    28    13    42 1   
    29    14    15 1   
    30    14    17 1   
    31    14    43 1   
    32    15    16 1   
    33    15    44 1   
    34    15    45 1   
    35    16    46 1   
    36    18    19 1   
    37    19    20 1   
    38    19    27 1   
    39    19    47 1   
    40    20    21 1   
    41    20    22 1   
    42    20    48 1   
    43    21    49 1   
    44    22    23 1   
    45    22    24 1   
    46    22    50 1   
    47    23    51 1   
    48    24    25 1   
    49    24    26 1   
    50    24    52 1   
    51    25    53 1   
    52    26    27 1   
    53    26    28 1   
    54    26    54 1   
    55    28    29 1   
    56    28    55 1   
    57    28    56 1   
    58    29    57 1   
@<TRIPOS>SUBSTRUCTURE
     1 8VZ         1 TEMP              0 ****  ****    0 ROOT
