@<TRIPOS>MOLECULE
8VZ
   57    58     1     0     0
SMALL
bcc


@<TRIPOS>ATOM
      1 O26          4.0510    -2.7490     0.6550 o          1 8VZ      -0.602100
      2 C24          3.9340    -2.5450    -0.5440 c          1 8VZ       0.673100
      3 C25          4.7020    -3.3330    -1.5730 c3         1 8VZ      -0.181100
      4 N2           3.0750    -1.6330    -1.0520 ns         1 8VZ      -0.577900
      5 C2,          2.2550    -0.7640    -0.2470 c6         1 8VZ       0.015700
      6 C1,          2.8580     0.6380    -0.1390 c6         1 8VZ       0.300500
      7 N1           4.1280     0.5840     0.5000 ns         1 8VZ      -0.569900
      8 C27          5.1550     1.4150     0.2040 c          1 8VZ       0.679100
      9 C28          6.4190     1.1710     0.9870 c3         1 8VZ      -0.179100
     10 O29          5.0770     2.2870    -0.6450 o          1 8VZ      -0.595100
     11 C3,          0.8420    -0.6920    -0.8360 c6         1 8VZ       0.141100
     12 O3,          0.2120    -1.9400    -0.7960 oh         1 8VZ      -0.558800
     13 C4,         -0.0030     0.3100    -0.0590 c6         1 8VZ       0.126100
     14 C5,          0.7380     1.6530     0.0210 c6         1 8VZ       0.133100
     15 C6,         -0.0020     2.6810     0.8520 c3         1 8VZ       0.145400
     16 O6,          0.7260     3.8850     0.8200 oh         1 8VZ      -0.579800
     17 O5,          2.0010     1.4570     0.6190 os         1 8VZ      -0.402600
     18 O1          -1.2320     0.4750    -0.7410 os         1 8VZ      -0.397600
     19 C1          -2.3850     0.3780     0.0150 c6         1 8VZ       0.328900
     20 C2          -3.5240     1.0170    -0.7770 c6         1 8VZ       0.082100
     21 O2          -3.3230     2.3990    -0.9600 oh         1 8VZ      -0.608800
     22 C3          -4.8220     0.8430     0.0010 c6         1 8VZ       0.116100
     23 O3          -5.9390     1.2970    -0.7240 oh         1 8VZ      -0.604800
     24 C4          -5.0490    -0.6270     0.3420 c6         1 8VZ       0.122100
     25 O4          -5.2880    -1.3990    -0.8080 oh         1 8VZ      -0.585800
     26 C5          -3.8090    -1.1660     1.0470 c6         1 8VZ       0.158100
     27 O5          -2.6550    -0.9730     0.2540 os         1 8VZ      -0.391600
     28 C6          -3.9300    -2.6370     1.3800 c3         1 8VZ       0.151400
     29 O6          -2.8860    -2.9900     2.2550 oh         1 8VZ      -0.592800
     30 H1           4.1690    -4.2620    -1.7850 hc         1 8VZ       0.063367
     31 H2           4.8270    -2.8000    -2.5140 hc         1 8VZ       0.063367
     32 H3           5.6830    -3.5950    -1.1830 hc         1 8VZ       0.063367
     33 H4           3.1120    -1.4460    -2.0430 hn         1 8VZ       0.312500
     34 H5           2.1880    -1.1940     0.7570 h1         1 8VZ       0.107700
     35 H6           2.9900     1.0580    -1.1450 h2         1 8VZ       0.067700
     36 H7           4.2550    -0.0970     1.2330 hn         1 8VZ       0.330500
     37 H8           6.3250     0.3940     1.7420 hc         1 8VZ       0.062367
     38 H9           7.2160     0.8880     0.2980 hc         1 8VZ       0.062367
     39 H10          6.7270     2.0950     1.4750 hc         1 8VZ       0.062367
     40 H11          0.9250    -0.3220    -1.8720 h1         1 8VZ       0.034700
     41 H12          0.7190    -2.5490    -1.3420 ho         1 8VZ       0.407000
     42 H13         -0.1650    -0.0720     0.9580 h1         1 8VZ       0.081700
     43 H14          0.8590     2.0440    -1.0030 h1         1 8VZ       0.059700
     44 H15         -1.0070     2.8170     0.4380 h1         1 8VZ       0.031200
     45 H16         -0.1170     2.2990     1.8760 h1         1 8VZ       0.031200
     46 H17          0.2510     4.5320     1.3490 ho         1 8VZ       0.405000
     47 H18         -2.2740     0.9090     0.9800 h2         1 8VZ       0.025700
     48 H19         -3.6090     0.4960    -1.7400 h1         1 8VZ       0.078700
     49 H20         -2.6860     2.5280    -1.6690 ho         1 8VZ       0.425000
     50 H21         -4.7250     1.3920     0.9510 h1         1 8VZ       0.047700
     51 H22         -5.7380     2.1700    -1.0790 ho         1 8VZ       0.430000
     52 H23         -5.8910    -0.6890     1.0460 h1         1 8VZ       0.050700
     53 H24         -5.9970    -0.9810    -1.3070 ho         1 8VZ       0.422000
     54 H25         -3.7160    -0.6100     1.9950 h1         1 8VZ       0.046700
     55 H26         -4.9140    -2.7980     1.8380 h1         1 8VZ       0.038700
     56 H27         -3.9040    -3.2280     0.4570 h1         1 8VZ       0.038700
     57 H28         -2.9630    -3.9290     2.4460 ho         1 8VZ       0.407000
@<TRIPOS>BOND
     1     1     2 2   
     2     2     3 1   
     3     2     4 1   
     4     3    30 1   
     5     3    31 1   
     6     3    32 1   
     7     4     5 1   
     8     4    33 1   
     9     5     6 1   
    10     5    11 1   
    11     5    34 1   
    12     6     7 1   
    13     6    17 1   
    14     6    35 1   
    15     7     8 1   
    16     7    36 1   
    17     8     9 1   
    18     8    10 2   
    19     9    37 1   
    20     9    38 1   
    21     9    39 1   
    22    11    12 1   
    23    11    13 1   
    24    11    40 1   
    25    12    41 1   
    26    13    14 1   
    27    13    18 1   
    28    13    42 1   
    29    14    15 1   
    30    14    17 1   
    31    14    43 1   
    32    15    16 1   
    33    15    44 1   
    34    15    45 1   
    35    16    46 1   
    36    18    19 1   
    37    19    20 1   
    38    19    27 1   
    39    19    47 1   
    40    20    21 1   
    41    20    22 1   
    42    20    48 1   
    43    21    49 1   
    44    22    23 1   
    45    22    24 1   
    46    22    50 1   
    47    23    51 1   
    48    24    25 1   
    49    24    26 1   
    50    24    52 1   
    51    25    53 1   
    52    26    27 1   
    53    26    28 1   
    54    26    54 1   
    55    28    29 1   
    56    28    55 1   
    57    28    56 1   
    58    29    57 1   
@<TRIPOS>SUBSTRUCTURE
     1 8VZ         1 TEMP              0 ****  ****    0 ROOT
