@<TRIPOS>MOLECULE
8W0
   63    66     1     0     0
SMALL
abcg2


@<TRIPOS>ATOM
      1 CAA         19.1380    -1.9470   123.1440 ca         1 8W0       0.267000
      2 CAB         18.7810    -2.2610   121.8030 ca         1 8W0      -0.073000
      3 CAC         17.5490    -1.7940   121.2890 ca         1 8W0      -0.092000
      4 CAD         16.7090    -1.0430   122.0680 ca         1 8W0      -0.091000
      5 CAE         17.0600    -0.7340   123.4050 ca         1 8W0      -0.134600
      6 CAF         18.2460    -1.1850   123.9320 ca         1 8W0      -0.042000
      7 CAH         21.1470    -3.0790   122.9590 ca         1 8W0       0.379300
      8 CAI         20.8700    -3.4620   121.6120 ca         1 8W0      -0.111300
      9 CAJ         19.6910    -3.0360   121.0560 ca         1 8W0      -0.073000
     10 CAK         22.4530    -3.4580   123.6140 c6         1 8W0      -0.132700
     11 CAL         23.2090    -4.5900   122.9180 c6         1 8W0      -0.060700
     12 CAM         23.2440    -4.3240   121.4150 c6         1 8W0      -0.066400
     13 CAN         21.8320    -4.3300   120.8380 c6         1 8W0      -0.028100
     14 CAO         24.5970    -4.7510   123.5350 c3         1 8W0       0.153800
     15 CAR         16.0940     0.0140   124.2790 c          1 8W0       0.612700
     16 CAU         14.8590     2.0620   124.7510 c6         1 8W0       0.069000
     17 CAV         15.5260     3.2460   125.4450 c6         1 8W0       0.091000
     18 CAX         17.2670     3.2720   123.7390 c6         1 8W0       0.090000
     19 CAY         16.6180     2.0930   123.0000 c6         1 8W0       0.092700
     20 CAZ         15.7690     2.5450   121.8150 c3         1 8W0      -0.099100
     21 CBA         15.9760     5.3090   124.1110 c          1 8W0       0.643100
     22 CBD         14.6110     7.2030   124.6070 c3         1 8W0       0.179600
     23 CBE         15.4660     8.1280   125.4520 c3         1 8W0      -0.108400
     24 CBF         15.0570     9.5880   125.2630 c3         1 8W0      -0.087100
     25 NAG         20.3140    -2.3600   123.6860 nb         1 8W0      -0.671000
     26 NAP         25.2820    -5.9500   123.0320 n8         1 8W0      -1.003200
     27 NAS         15.8380     1.3050   123.9700 n          1 8W0      -0.410800
     28 NAW         16.2710     4.0370   124.4720 n          1 8W0      -0.407800
     29 OAT         15.5510    -0.5750   125.2190 o          1 8W0      -0.596100
     30 OBB         16.5660     5.9360   123.2420 o          1 8W0      -0.546000
     31 OBC         14.9490     5.8150   124.8270 os         1 8W0      -0.465100
     32 H1          17.2780    -2.0410   120.2690 ha         1 8W0       0.118000
     33 H2          15.7670    -0.6890   121.6700 ha         1 8W0       0.122000
     34 H3          18.5230    -0.9600   124.9540 ha         1 8W0       0.140000
     35 H4          19.4460    -3.2970   120.0320 ha         1 8W0       0.118000
     36 H5          22.2570    -3.7020   124.6600 hc         1 8W0       0.063200
     37 H6          23.0880    -2.5630   123.6230 hc         1 8W0       0.063200
     38 H7          22.6590    -5.5270   123.0850 hc         1 8W0       0.050700
     39 H8          23.8530    -5.0750   120.9110 hc         1 8W0       0.054700
     40 H9          23.7160    -3.3510   121.2390 hc         1 8W0       0.054700
     41 H10         21.8360    -4.0190   119.7910 hc         1 8W0       0.052200
     42 H11         21.4510    -5.3580   120.8490 hc         1 8W0       0.052200
     43 H12         24.4940    -4.7530   124.6290 h1         1 8W0       0.031200
     44 H13         25.2040    -3.8790   123.2760 h1         1 8W0       0.031200
     45 H14         14.0700     2.4190   124.0870 h1         1 8W0       0.071700
     46 H15         14.4210     1.3920   125.4840 h1         1 8W0       0.071700
     47 H16         16.2280     2.8800   126.1990 h1         1 8W0       0.068700
     48 H17         14.7800     3.8620   125.9330 h1         1 8W0       0.068700
     49 H18         18.0030     2.8850   124.4510 h1         1 8W0       0.072200
     50 H19         17.7700     3.9250   123.0330 h1         1 8W0       0.072200
     51 H20         17.4250     1.4610   122.6380 h1         1 8W0       0.073700
     52 H21         16.4050     3.0450   121.0830 hc         1 8W0       0.046367
     53 H22         15.2950     1.6890   121.3350 hc         1 8W0       0.046367
     54 H23         14.9910     3.2450   122.1170 hc         1 8W0       0.046367
     55 H24         13.5620     7.2740   124.8920 h1         1 8W0       0.062200
     56 H25         14.7090     7.4310   123.5460 h1         1 8W0       0.062200
     57 H26         16.5160     7.9940   125.1790 hc         1 8W0       0.054700
     58 H27         15.3650     7.8410   126.5020 hc         1 8W0       0.054700
     59 H28         15.6730    10.2460   125.8780 hc         1 8W0       0.036033
     60 H29         15.1730     9.8970   124.2220 hc         1 8W0       0.036033
     61 H30         14.0130     9.7440   125.5450 hc         1 8W0       0.036033
     62 H31         26.2160    -5.9980   123.4240 hn         1 8W0       0.394500
     63 H32         24.7970    -6.7790   123.3630 hn         1 8W0       0.394500
@<TRIPOS>BOND
     1     1     2 ar  
     2     1     6 ar  
     3     1    25 ar  
     4     2     3 ar  
     5     2     9 ar  
     6     3     4 ar  
     7     3    32 1   
     8     4     5 ar  
     9     4    33 1   
    10     5     6 ar  
    11     5    15 1   
    12     6    34 1   
    13     7     8 ar  
    14     7    10 1   
    15     7    25 ar  
    16     8     9 ar  
    17     8    13 1   
    18     9    35 1   
    19    10    11 1   
    20    10    36 1   
    21    10    37 1   
    22    11    12 1   
    23    11    14 1   
    24    11    38 1   
    25    12    13 1   
    26    12    39 1   
    27    12    40 1   
    28    13    41 1   
    29    13    42 1   
    30    14    26 1   
    31    14    43 1   
    32    14    44 1   
    33    15    27 1   
    34    15    29 2   
    35    16    17 1   
    36    16    27 1   
    37    16    45 1   
    38    16    46 1   
    39    17    28 1   
    40    17    47 1   
    41    17    48 1   
    42    18    19 1   
    43    18    28 1   
    44    18    49 1   
    45    18    50 1   
    46    19    20 1   
    47    19    27 1   
    48    19    51 1   
    49    20    52 1   
    50    20    53 1   
    51    20    54 1   
    52    21    28 1   
    53    21    30 2   
    54    21    31 1   
    55    22    23 1   
    56    22    31 1   
    57    22    55 1   
    58    22    56 1   
    59    23    24 1   
    60    23    57 1   
    61    23    58 1   
    62    24    59 1   
    63    24    60 1   
    64    24    61 1   
    65    26    62 1   
    66    26    63 1   
@<TRIPOS>SUBSTRUCTURE
     1 8W0         1 TEMP              0 ****  ****    0 ROOT
