@<TRIPOS>MOLECULE
8W0
   63    66     1     0     0
SMALL
No Charge or Current Charge


@<TRIPOS>ATOM
      1 CAA         19.3610    -1.7870   123.2310 ca         1 8W0       0.267000
      2 CAB         18.9600    -2.2410   121.9500 ca         1 8W0      -0.073000
      3 CAC         17.7180    -1.8600   121.4140 ca         1 8W0      -0.092000
      4 CAD         16.8650    -1.0150   122.1420 ca         1 8W0      -0.091000
      5 CAE         17.2520    -0.5280   123.4100 ca         1 8W0      -0.134600
      6 CAF         18.4920    -0.9410   123.9460 ca         1 8W0      -0.042000
      7 CAH         21.3660    -2.9630   123.0710 ca         1 8W0       0.379300
      8 CAI         21.0450    -3.4530   121.7850 ca         1 8W0      -0.111300
      9 CAJ         19.8130    -3.0870   121.2190 ca         1 8W0      -0.073000
     10 CAK         22.6910    -3.3020   123.7560 c6         1 8W0      -0.132700
     11 CAL         23.4150    -4.5310   123.1420 c6         1 8W0      -0.060700
     12 CAM         23.4280    -4.4040   121.5950 c6         1 8W0      -0.066400
     13 CAN         21.9910    -4.3860   121.0230 c6         1 8W0      -0.028100
     14 CAO         24.8420    -4.6930   123.7480 c3         1 8W0       0.153800
     15 CAR         16.3520     0.3670   124.2350 c          1 8W0       0.612700
     16 CAU         14.3670     1.9170   124.3220 c6         1 8W0       0.069000
     17 CAV         14.7360     3.3670   124.7180 c6         1 8W0       0.091000
     18 CAX         16.2930     3.4330   122.7150 c6         1 8W0       0.090000
     19 CAY         15.8470     1.9910   122.3500 c6         1 8W0       0.092700
     20 CAZ         14.7290     2.0160   121.2690 c3         1 8W0      -0.099100
     21 CBA         15.5060     5.5760   123.7500 c          1 8W0       0.643100
     22 CBD         14.8280     7.4900   125.0750 c3         1 8W0       0.179600
     23 CBE         16.1430     7.7760   125.8370 c3         1 8W0      -0.108400
     24 CBF         16.2730     9.2470   126.2790 c3         1 8W0      -0.087100
     25 NAG         20.5480    -2.1470   123.7750 nb         1 8W0      -0.671000
     26 NAP         25.5410    -5.9220   123.3230 n8         1 8W0      -1.003200
     27 NAS         15.4510     1.2340   123.5700 n          1 8W0      -0.410800
     28 NAW         15.3800     4.1770   123.6360 n          1 8W0      -0.407800
     29 OAT         16.3470     0.2780   125.4570 o          1 8W0      -0.596100
     30 OBB         16.1780     6.2530   122.9850 o          1 8W0      -0.546000
     31 OBC         14.7550     6.0820   124.7790 os         1 8W0      -0.465100
     32 H1          17.4060    -2.2230   120.4370 ha         1 8W0       0.118000
     33 H2          15.8960    -0.7570   121.7230 ha         1 8W0       0.122000
     34 H3          18.7980    -0.5930   124.9290 ha         1 8W0       0.140000
     35 H4          19.5260    -3.4520   120.2360 ha         1 8W0       0.118000
     36 H5          22.5210    -3.4770   124.8270 hc         1 8W0       0.063200
     37 H6          23.3450    -2.4210   123.6910 hc         1 8W0       0.063200
     38 H7          22.8520    -5.4350   123.4160 hc         1 8W0       0.050700
     39 H8          23.9860    -5.2340   121.1400 hc         1 8W0       0.054700
     40 H9          23.9530    -3.4830   121.3040 hc         1 8W0       0.054700
     41 H10         22.0250    -4.1030   119.9620 hc         1 8W0       0.052200
     42 H11         21.5800    -5.4050   121.0540 hc         1 8W0       0.052200
     43 H12         24.7620    -4.7070   124.8450 h1         1 8W0       0.031200
     44 H13         25.4550    -3.8260   123.4640 h1         1 8W0       0.031200
     45 H14         13.4600     1.9370   123.7030 h1         1 8W0       0.071700
     46 H15         14.1050     1.3490   125.2260 h1         1 8W0       0.071700
     47 H16         15.4280     3.3290   125.5710 h1         1 8W0       0.068700
     48 H17         13.8200     3.8630   125.0680 h1         1 8W0       0.068700
     49 H18         17.2780     3.3750   123.1980 h1         1 8W0       0.072200
     50 H19         16.4330     4.0060   121.7870 h1         1 8W0       0.072200
     51 H20         16.7170     1.5110   121.8820 h1         1 8W0       0.073700
     52 H21         15.1020     2.4490   120.3330 hc         1 8W0       0.046367
     53 H22         14.3710     1.0050   121.0440 hc         1 8W0       0.046367
     54 H23         13.8660     2.6160   121.5820 hc         1 8W0       0.046367
     55 H24         13.9830     7.7770   125.7160 h1         1 8W0       0.062200
     56 H25         14.7710     8.0970   124.1610 h1         1 8W0       0.062200
     57 H26         17.0040     7.5210   125.2080 hc         1 8W0       0.054700
     58 H27         16.1910     7.1320   126.7240 hc         1 8W0       0.054700
     59 H28         17.2160     9.4030   126.8160 hc         1 8W0       0.036033
     60 H29         16.2590     9.9160   125.4100 hc         1 8W0       0.036033
     61 H30         15.4480     9.5270   126.9460 hc         1 8W0       0.036033
     62 H31         26.4370    -5.9870   123.8220 hn         1 8W0       0.394500
     63 H32         25.0170    -6.7380   123.6640 hn         1 8W0       0.394500
@<TRIPOS>BOND
     1     1     2 ar  
     2     1     6 ar  
     3     1    25 ar  
     4     2     3 ar  
     5     2     9 ar  
     6     3     4 ar  
     7     3    32 1   
     8     4     5 ar  
     9     4    33 1   
    10     5     6 ar  
    11     5    15 1   
    12     6    34 1   
    13     7     8 ar  
    14     7    10 1   
    15     7    25 ar  
    16     8     9 ar  
    17     8    13 1   
    18     9    35 1   
    19    10    11 1   
    20    10    36 1   
    21    10    37 1   
    22    11    12 1   
    23    11    14 1   
    24    11    38 1   
    25    12    13 1   
    26    12    39 1   
    27    12    40 1   
    28    13    41 1   
    29    13    42 1   
    30    14    26 1   
    31    14    43 1   
    32    14    44 1   
    33    15    27 1   
    34    15    29 2   
    35    16    17 1   
    36    16    27 1   
    37    16    45 1   
    38    16    46 1   
    39    17    28 1   
    40    17    47 1   
    41    17    48 1   
    42    18    19 1   
    43    18    28 1   
    44    18    49 1   
    45    18    50 1   
    46    19    20 1   
    47    19    27 1   
    48    19    51 1   
    49    20    52 1   
    50    20    53 1   
    51    20    54 1   
    52    21    28 1   
    53    21    30 2   
    54    21    31 1   
    55    22    23 1   
    56    22    31 1   
    57    22    55 1   
    58    22    56 1   
    59    23    24 1   
    60    23    57 1   
    61    23    58 1   
    62    24    59 1   
    63    24    60 1   
    64    24    61 1   
    65    26    62 1   
    66    26    63 1   
@<TRIPOS>SUBSTRUCTURE
     1 8W0         1 TEMP              0 ****  ****    0 ROOT
