@<TRIPOS>MOLECULE
8W1
   22    23     1     0     0
SMALL
No Charge or Current Charge


@<TRIPOS>ATOM
      1 C4          39.8670   135.5120    35.2450 cc         1 8W1      -0.112000
      2 C5          39.1990   134.8560    34.2250 cd         1 8W1      -0.290300
      3 C6          39.5720   133.4730    34.2510 cd         1 8W1      -0.041000
      4 C7          40.4600   133.2690    35.2750 cc         1 8W1      -0.266600
      5 C8          41.1200   132.0510    35.7040 c          1 8W1       0.608600
      6 C9          38.2340   135.4690    33.2350 c3         1 8W1       0.389300
      7 N1          40.6060   134.5050    35.8360 na         1 8W1       0.170100
      8 N2          41.9300   132.3160    36.7770 ns         1 8W1      -0.408100
      9 C3          41.4470   134.7200    36.9320 cc         1 8W1      -0.230100
     10 C2          42.1010   133.5650    37.3730 cd         1 8W1       0.044400
     11 F1          37.0120   134.8960    33.3140 f          1 8W1      -0.116000
     12 F2          38.0650   136.7950    33.4390 f          1 8W1      -0.116000
     13 F3          38.6650   135.3150    31.9630 f          1 8W1      -0.116000
     14 O1          40.9930   130.9440    35.2060 o          1 8W1      -0.526000
     15 H5          39.8750   136.5430    35.5750 h4         1 8W1       0.166000
     16 H6          39.2100   132.7040    33.5710 ha         1 8W1       0.164000
     17 H7          42.4270   131.5100    37.1350 hn         1 8W1       0.332500
     18 H4          41.5320   135.7170    37.3440 h4         1 8W1       0.225000
     19 H1          43.1640   134.5450    38.9770 hc         1 8W1       0.060700
     20 H2          42.7050   132.8730    39.3260 hc         1 8W1       0.060700
     21 H3          44.0530   133.2150    38.2240 hc         1 8W1       0.060700
     22 C1          43.0560   133.5470    38.5360 c3         1 8W1      -0.060900
@<TRIPOS>BOND
     1     1     2 2   
     2     1     7 1   
     3     1    15 1   
     4     2     3 1   
     5     2     6 1   
     6     3     4 2   
     7     3    16 1   
     8     4     5 1   
     9     4     7 1   
    10     5     8 1   
    11     5    14 2   
    12     6    11 1   
    13     6    12 1   
    14     6    13 1   
    15     7     9 1   
    16     8    10 1   
    17     8    17 1   
    18     9    10 2   
    19     9    18 1   
    20    10    22 1   
    21    19    22 1   
    22    20    22 1   
    23    21    22 1   
@<TRIPOS>SUBSTRUCTURE
     1 8W1         1 TEMP              0 ****  ****    0 ROOT
