@<TRIPOS>MOLECULE
8W1
   22    23     1     0     0
SMALL
bcc


@<TRIPOS>ATOM
      1 C4          39.8880   135.4360    35.2100 cc         1 8W1      -0.079300
      2 C5          39.1730   134.8080    34.2080 cd         1 8W1      -0.290300
      3 C6          39.4890   133.4380    34.2290 cd         1 8W1      -0.059000
      4 C7          40.3910   133.2680    35.2530 cc         1 8W1      -0.215900
      5 C8          41.0580   132.0820    35.7510 c          1 8W1       0.751100
      6 C9          38.2660   135.4800    33.2550 c3         1 8W1       0.753200
      7 N1          40.6220   134.4950    35.8360 na         1 8W1       0.068700
      8 N2          41.8930   132.3220    36.8080 ns         1 8W1      -0.475100
      9 C3          41.4960   134.6440    36.9070 cc         1 8W1      -0.180100
     10 C2          42.1220   133.5600    37.3820 cd         1 8W1       0.044400
     11 F1          37.1870   134.7350    32.9780 f          1 8W1      -0.237300
     12 F2          37.8310   136.6560    33.7250 f          1 8W1      -0.237300
     13 F3          38.8580   135.7360    32.0760 f          1 8W1      -0.237300
     14 O1          40.8970   130.9680    35.2810 o          1 8W1      -0.601500
     15 H5          39.9240   136.4700    35.5140 h4         1 8W1       0.184000
     16 H6          39.1060   132.6630    33.5850 ha         1 8W1       0.182000
     17 H7          42.3820   131.5230    37.1890 hn         1 8W1       0.332500
     18 H4          41.6310   135.6370    37.3060 h4         1 8W1       0.175000
     19 H1          43.1960   134.6150    38.8930 hc         1 8W1       0.060700
     20 H2          42.7390   132.9700    39.3420 hc         1 8W1       0.060700
     21 H3          44.0640   133.2350    38.2120 hc         1 8W1       0.060700
     22 C1          43.0830   133.6000    38.5200 c3         1 8W1      -0.060900
@<TRIPOS>BOND
     1     1     2 2   
     2     1     7 1   
     3     1    15 1   
     4     2     3 1   
     5     2     6 1   
     6     3     4 2   
     7     3    16 1   
     8     4     5 1   
     9     4     7 1   
    10     5     8 1   
    11     5    14 2   
    12     6    11 1   
    13     6    12 1   
    14     6    13 1   
    15     7     9 1   
    16     8    10 1   
    17     8    17 1   
    18     9    10 2   
    19     9    18 1   
    20    10    22 1   
    21    19    22 1   
    22    20    22 1   
    23    21    22 1   
@<TRIPOS>SUBSTRUCTURE
     1 8W1         1 TEMP              0 ****  ****    0 ROOT
