@<TRIPOS>MOLECULE
8W2
   47    50     1     0     0
SMALL
No Charge or Current Charge


@<TRIPOS>ATOM
      1 CAJ         -4.5190    -1.6450     0.4200 cc         1 8W2      -0.219200
      2 CBA         -5.5720    -0.7110     0.1450 ca         1 8W2      -0.098800
      3 CAU         -6.9180    -0.9140    -0.1980 ca         1 8W2       0.176000
      4 Cl1         -7.5850    -2.5350    -0.3590 cl         1 8W2      -0.194000
      5 CAH         -7.7250     0.2200    -0.4110 ca         1 8W2      -0.129000
      6 CAT         -7.1760     1.5160    -0.2780 ca         1 8W2       0.143000
      7 Cl2         -8.1920     2.9250    -0.5470 cl         1 8W2      -0.201000
      8 CAI         -5.8190     1.6880     0.0680 ca         1 8W2      -0.120000
      9 CAZ         -5.0390     0.5420     0.2740 ca         1 8W2      -0.035200
     10 NAR         -3.6980     0.4740     0.6180 na         1 8W2      -0.200700
     11 CAV         -3.3800    -0.9030     0.7060 cd         1 8W2      -0.069300
     12 CAN         -2.0010    -1.4020     1.0680 c3         1 8W2       0.213000
     13 NAP         -0.9470    -0.5540     0.4750 n7         1 8W2      -0.879400
     14 CAL          0.4340    -0.9700     0.7750 c3         1 8W2       0.163800
     15 CAK          1.4310    -0.0030     0.1110 c3         1 8W2      -0.101400
     16 CAM          2.8940    -0.3820     0.4040 c3         1 8W2       0.240800
     17 NAQ          3.8130     0.5650    -0.2490 nu         1 8W2      -0.912400
     18 CAW          5.1670     0.5320    -0.2100 cc         1 8W2       0.731800
     19 NAS          5.7380    -0.4430     0.4730 nd         1 8W2      -0.714100
     20 CAY          7.1410    -0.4030     0.4620 ca         1 8W2       0.232400
     21 CAF          7.8290    -1.4080     1.1670 ca         1 8W2      -0.127000
     22 CAD          9.2330    -1.4340     1.2020 ca         1 8W2      -0.064000
     23 CAE          9.9660    -0.4460     0.5270 ca         1 8W2      -0.153000
     24 CAG          9.2950     0.5630    -0.1810 ca         1 8W2      -0.028000
     25 CBB          7.8850     0.5830    -0.2120 ca         1 8W2      -0.236600
     26 CAX          7.1480     1.6340    -0.9490 c          1 8W2       0.592600
     27 OAA          7.6840     2.5390    -1.5700 o          1 8W2      -0.540000
     28 NAO          5.8080     1.5130    -0.8810 ns         1 8W2      -0.454400
     29 H1          -4.5830    -2.7310     0.4120 ha         1 8W2       0.214000
     30 H2          -8.7710     0.0980    -0.6780 ha         1 8W2       0.143000
     31 H3          -5.3940     2.6840     0.1710 ha         1 8W2       0.133000
     32 H4          -3.0550     1.2450     0.7590 hn         1 8W2       0.365000
     33 H5          -1.9130    -1.4160     2.1630 h1         1 8W2       0.051700
     34 H6          -1.9020    -2.4400     0.7190 h1         1 8W2       0.051700
     35 H7          -1.0740    -0.5740    -0.5450 hn         1 8W2       0.417000
     36 H9           0.6050    -0.9710     1.8600 h1         1 8W2       0.038200
     37 H10          0.6180    -1.9880     0.4040 h1         1 8W2       0.038200
     38 H11          1.2680    -0.0020    -0.9740 hc         1 8W2       0.052200
     39 H12          1.2420     1.0150     0.4740 hc         1 8W2       0.052200
     40 H13          3.0580    -0.3780     1.4910 h1         1 8W2       0.059700
     41 H14          3.0830    -1.4020     0.0400 h1         1 8W2       0.059700
     42 H15          3.4140     1.3350    -0.7760 hn         1 8W2       0.494000
     43 H16          7.2660    -2.1750     1.6910 ha         1 8W2       0.128000
     44 H17          9.7500    -2.2180     1.7510 ha         1 8W2       0.113000
     45 H18         11.0540    -0.4630     0.5510 ha         1 8W2       0.118000
     46 H19          9.8710     1.3260    -0.7030 ha         1 8W2       0.131000
     47 H20          5.2730     2.2090    -1.3710 hn         1 8W2       0.321500
@<TRIPOS>BOND
     1     1     2 1   
     2     1    11 2   
     3     1    29 1   
     4     2     3 ar  
     5     2     9 ar  
     6     3     4 1   
     7     3     5 ar  
     8     5     6 ar  
     9     5    30 1   
    10     6     7 1   
    11     6     8 ar  
    12     8     9 ar  
    13     8    31 1   
    14     9    10 1   
    15    10    11 1   
    16    10    32 1   
    17    11    12 1   
    18    12    13 1   
    19    12    33 1   
    20    12    34 1   
    21    13    14 1   
    22    13    35 1   
    23    14    15 1   
    24    14    36 1   
    25    14    37 1   
    26    15    16 1   
    27    15    38 1   
    28    15    39 1   
    29    16    17 1   
    30    16    40 1   
    31    16    41 1   
    32    17    18 1   
    33    17    42 1   
    34    18    19 2   
    35    18    28 1   
    36    19    20 1   
    37    20    21 ar  
    38    20    25 ar  
    39    21    22 ar  
    40    21    43 1   
    41    22    23 ar  
    42    22    44 1   
    43    23    24 ar  
    44    23    45 1   
    45    24    25 ar  
    46    24    46 1   
    47    25    26 1   
    48    26    27 2   
    49    26    28 1   
    50    28    47 1   
@<TRIPOS>SUBSTRUCTURE
     1 8W2         1 TEMP              0 ****  ****    0 ROOT
