@<TRIPOS>MOLECULE
8W2
   47    50     1     0     0
SMALL
abcg2


@<TRIPOS>ATOM
      1 CAJ         -4.4040    -1.7360     0.4510 cc         1 8W2      -0.219200
      2 CBA         -5.4660    -0.8230     0.1920 ca         1 8W2      -0.098800
      3 CAU         -6.8240    -0.9430    -0.0970 ca         1 8W2       0.176000
      4 CL1         -7.5300    -2.5200    -0.1790 cl         1 8W2      -0.194000
      5 CAH         -7.6040     0.1730    -0.3160 ca         1 8W2      -0.129000
      6 CAT         -7.0120     1.4400    -0.2440 ca         1 8W2       0.143000
      7 CL2         -8.0170     2.8270    -0.5240 cl         1 8W2      -0.201000
      8 CAI         -5.6760     1.6290     0.0400 ca         1 8W2      -0.120000
      9 CAZ         -4.9200     0.4800     0.2560 ca         1 8W2      -0.035200
     10 NAR         -3.5990     0.3430     0.5490 na         1 8W2      -0.200700
     11 CAV         -3.2830    -0.9830     0.6640 cd         1 8W2      -0.069300
     12 CAN         -1.8950    -1.3980     1.0110 c3         1 8W2       0.213000
     13 NAP         -0.9270    -0.5740     0.3140 n7         1 8W2      -0.879400
     14 CAL          0.4400    -0.8370     0.7220 c3         1 8W2       0.163800
     15 CAK          1.4050     0.0830    -0.0080 c3         1 8W2      -0.101400
     16 CAM          2.8440    -0.1830     0.4030 c3         1 8W2       0.240800
     17 NAQ          3.7330     0.7330    -0.2800 nu         1 8W2      -0.912400
     18 CAW          5.0660     0.6300    -0.2000 cc         1 8W2       0.731800
     19 NAS          5.6200    -0.3680     0.4170 nd         1 8W2      -0.714100
     20 CAY          6.9850    -0.4200     0.4370 ca         1 8W2       0.232400
     21 CAF          7.6120    -1.4940     1.0940 ca         1 8W2      -0.127000
     22 CAD          8.9860    -1.5800     1.1390 ca         1 8W2      -0.064000
     23 CAE          9.7900    -0.6040     0.5360 ca         1 8W2      -0.153000
     24 CAG          9.1950     0.4550    -0.1120 ca         1 8W2      -0.028000
     25 CBB          7.8010     0.5530    -0.1670 ca         1 8W2      -0.236600
     26 CAX          7.1630     1.6690    -0.8500 c          1 8W2       0.592600
     27 OAA          7.7410     2.5810    -1.4150 o          1 8W2      -0.540000
     28 NAO          5.7880     1.6230    -0.8130 ns         1 8W2      -0.454400
     29 H1          -4.4580    -2.8130     0.4740 ha         1 8W2       0.214000
     30 H2          -8.6580     0.0740    -0.5380 ha         1 8W2       0.143000
     31 H3          -5.2410     2.6180     0.0940 ha         1 8W2       0.133000
     32 H4          -2.9240     1.0880     0.6170 hn         1 8W2       0.365000
     33 H5          -1.7410    -1.2610     2.0870 h1         1 8W2       0.051700
     34 H6          -1.7900    -2.4750     0.8200 h1         1 8W2       0.051700
     35 H7          -1.0100    -0.7420    -0.6830 hn         1 8W2       0.417000
     36 H9           0.5150    -0.6610     1.8000 h1         1 8W2       0.038200
     37 H10          0.7350    -1.8850     0.5580 h1         1 8W2       0.038200
     38 H11          1.3040    -0.0590    -1.0880 hc         1 8W2       0.052200
     39 H12          1.1400     1.1220     0.2080 hc         1 8W2       0.052200
     40 H13          2.9500    -0.0820     1.4880 h1         1 8W2       0.059700
     41 H14          3.1230    -1.2070     0.1510 h1         1 8W2       0.059700
     42 H15          3.3350     1.5830    -0.6470 hn         1 8W2       0.494000
     43 H16          6.9950    -2.2500     1.5610 ha         1 8W2       0.128000
     44 H17          9.4500    -2.4150     1.6480 ha         1 8W2       0.113000
     45 H18         10.8680    -0.6840     0.5800 ha         1 8W2       0.118000
     46 H19          9.8000     1.2180    -0.5840 ha         1 8W2       0.131000
     47 H20          5.2990     2.3770    -1.2780 hn         1 8W2       0.321500
@<TRIPOS>BOND
     1     1     2 1   
     2     1    11 2   
     3     1    29 1   
     4     2     3 ar  
     5     2     9 ar  
     6     3     4 1   
     7     3     5 ar  
     8     5     6 ar  
     9     5    30 1   
    10     6     7 1   
    11     6     8 ar  
    12     8     9 ar  
    13     8    31 1   
    14     9    10 1   
    15    10    11 1   
    16    10    32 1   
    17    11    12 1   
    18    12    13 1   
    19    12    33 1   
    20    12    34 1   
    21    13    14 1   
    22    13    35 1   
    23    14    15 1   
    24    14    36 1   
    25    14    37 1   
    26    15    16 1   
    27    15    38 1   
    28    15    39 1   
    29    16    17 1   
    30    16    40 1   
    31    16    41 1   
    32    17    18 1   
    33    17    42 1   
    34    18    19 2   
    35    18    28 1   
    36    19    20 1   
    37    20    21 ar  
    38    20    25 ar  
    39    21    22 ar  
    40    21    43 1   
    41    22    23 ar  
    42    22    44 1   
    43    23    24 ar  
    44    23    45 1   
    45    24    25 ar  
    46    24    46 1   
    47    25    26 1   
    48    26    27 2   
    49    26    28 1   
    50    28    47 1   
@<TRIPOS>SUBSTRUCTURE
     1 8W2         1 TEMP              0 ****  ****    0 ROOT
