@<TRIPOS>MOLECULE
8W3
   73    76     1     0     0
SMALL
abcg2


@<TRIPOS>ATOM
      1 C1          -9.6670   -16.4270    -6.0420 c          1 8W3       0.574000
      2 O2          -8.6750   -16.8110    -5.4350 o          1 8W3      -0.532000
      3 C9         -13.2740   -14.2290    -1.6370 ca         1 8W3       0.088000
      4 C10        -12.3390   -15.0680    -2.2310 ca         1 8W3      -0.069000
      5 C8         -13.3430   -12.8890    -1.9720 ca         1 8W3      -0.065000
      6 C7         -12.4580   -12.3790    -2.9180 ca         1 8W3      -0.187000
      7 C6         -11.5190   -13.2130    -3.5220 ca         1 8W3       0.145100
      8 O23        -10.6220   -12.7920    -4.4520 os         1 8W3      -0.346100
      9 C24        -10.6370   -11.4210    -4.8460 c3         1 8W3       0.146900
     10 C5         -11.4540   -14.5770    -3.1810 ca         1 8W3      -0.106300
     11 C4         -10.4520   -15.4790    -3.8490 c3         1 8W3      -0.010100
     12 C3         -10.8480   -15.8170    -5.2970 c3         1 8W3      -0.150700
     13 C11        -12.0180   -16.8080    -5.3000 c3         1 8W3       0.235800
     14 N12        -12.7330   -16.9570    -6.5640 nu         1 8W3      -0.919400
     15 C13        -12.2700   -16.7580    -7.8130 c2         1 8W3       0.592200
     16 N14        -12.8730   -17.1280    -8.9000 n2         1 8W3      -0.402700
     17 O62        -14.0780   -17.8100    -8.5540 os         1 8W3      -0.248100
     18 C63        -14.7990   -18.2500    -9.6310 ca         1 8W3       0.154100
     19 C68        -14.4530   -18.0160   -10.9590 ca         1 8W3      -0.154000
     20 C67        -15.2740   -18.5130   -11.9690 ca         1 8W3      -0.085000
     21 C66        -16.4240   -19.2340   -11.6700 ca         1 8W3      -0.153000
     22 C65        -16.7570   -19.4600   -10.3350 ca         1 8W3      -0.085000
     23 C64        -15.9510   -18.9720    -9.3160 ca         1 8W3      -0.154000
     24 C15        -11.0020   -15.9850    -8.0580 c3         1 8W3       0.050700
     25 N16         -9.8210   -16.5640    -7.4060 n          1 8W3      -0.394400
     26 C17         -8.9150   -17.2640    -8.2820 c          1 8W3       0.645100
     27 O18         -9.1760   -17.3380    -9.4790 o          1 8W3      -0.632100
     28 N19         -7.8310   -17.7940    -7.7120 ns         1 8W3      -0.486900
     29 C20         -6.8380   -18.5490    -8.4790 c3         1 8W3       0.180000
     30 C30         -7.3040   -19.9970    -8.7040 c3         1 8W3      -0.086400
     31 C35         -6.3640   -20.7830    -9.6120 c3         1 8W3      -0.083100
     32 C21         -5.5040   -18.4630    -7.7720 ca         1 8W3      -0.090300
     33 C25         -5.3670   -18.9250    -6.4710 ca         1 8W3      -0.216000
     34 C26         -4.1440   -18.8580    -5.7830 ca         1 8W3       0.327000
     35 N57         -4.0560   -19.3790    -4.5090 nv         1 8W3      -1.106000
     36 C29         -4.3910   -17.9290    -8.4240 ca         1 8W3      -0.178000
     37 C28         -3.1780   -17.8620    -7.7550 ca         1 8W3      -0.055000
     38 C27         -3.0170   -18.3020    -6.4400 ca         1 8W3      -0.186600
     39 C31         -1.6610   -18.1320    -5.7720 c          1 8W3       0.713600
     40 O32         -0.7000   -17.7690    -6.4960 o          1 8W3      -0.727000
     41 O33         -1.5810   -18.3500    -4.5260 o          1 8W3      -0.727000
     42 H1         -12.2980   -16.1130    -1.9540 ha         1 8W3       0.131000
     43 H2         -14.0720   -12.2410    -1.5060 ha         1 8W3       0.127000
     44 H3         -12.5130   -11.3310    -3.1720 ha         1 8W3       0.122000
     45 H4          -9.8480   -11.3170    -5.5870 h1         1 8W3       0.045367
     46 H5         -11.5980   -11.1520    -5.2910 h1         1 8W3       0.045367
     47 H6         -10.4310   -10.7670    -3.9950 h1         1 8W3       0.045367
     48 H7         -10.3450   -16.3990    -3.2740 hc         1 8W3       0.076700
     49 H8          -9.4760   -14.9950    -3.8650 hc         1 8W3       0.076700
     50 H9         -11.1540   -14.8940    -5.7860 hc         1 8W3       0.088700
     51 H10        -12.7490   -16.4660    -4.5670 h1         1 8W3       0.050200
     52 H11        -13.5610   -17.4580   -11.1970 ha         1 8W3       0.129500
     53 H12        -15.0040   -18.3300   -13.0020 ha         1 8W3       0.106500
     54 H13        -17.0540   -19.6160   -12.4630 ha         1 8W3       0.107000
     55 H14        -17.6480   -20.0210   -10.0840 ha         1 8W3       0.106500
     56 H15        -16.2000   -19.1430    -8.2760 ha         1 8W3       0.129500
     57 H16        -10.8150   -15.9930    -9.1240 h1         1 8W3       0.095200
     58 H17        -11.1230   -14.9510    -7.7430 h1         1 8W3       0.095200
     59 H18         -7.7130   -17.6520    -6.7160 hn         1 8W3       0.362500
     60 H19         -6.7460   -18.0670    -9.4530 h1         1 8W3       0.065700
     61 H20         -7.3960   -20.4910    -7.7330 hc         1 8W3       0.041700
     62 H21         -8.3030   -19.9620    -9.1420 hc         1 8W3       0.041700
     63 H22         -6.7470   -21.7900    -9.7870 hc         1 8W3       0.034367
     64 H23         -6.2560   -20.2900   -10.5820 hc         1 8W3       0.034367
     65 H24         -5.3690   -20.8720    -9.1720 hc         1 8W3       0.034367
     66 H25         -6.2180   -19.3570    -5.9560 ha         1 8W3       0.087000
     67 H26         -3.2270   -19.0640    -4.0140 hn         1 8W3       0.473000
     68 H27         -4.9170   -19.4280    -3.9870 hn         1 8W3       0.473000
     69 H28         -4.4810   -17.5670    -9.4400 ha         1 8W3       0.091000
     70 H29         -2.3110   -17.4420    -8.2480 ha         1 8W3       0.130000
     71 H31        -11.6510   -17.7830    -4.9620 h1         1 8W3       0.050200
     72 H32        -13.5660   -17.5230    -6.5070 hn         1 8W3       0.502000
     73 CL2        -14.3840   -14.8850    -0.4450 cl         1 8W3      -0.218000
@<TRIPOS>BOND
     1     1     2 2   
     2     1    12 1   
     3     1    25 1   
     4     3     4 ar  
     5     3     5 ar  
     6     3    73 1   
     7     4    10 ar  
     8     4    42 1   
     9     5     6 ar  
    10     5    43 1   
    11     6     7 ar  
    12     6    44 1   
    13     7     8 1   
    14     7    10 ar  
    15     8     9 1   
    16     9    45 1   
    17     9    46 1   
    18     9    47 1   
    19    10    11 1   
    20    11    12 1   
    21    11    48 1   
    22    11    49 1   
    23    12    13 1   
    24    12    50 1   
    25    13    14 1   
    26    13    51 1   
    27    13    71 1   
    28    14    15 1   
    29    14    72 1   
    30    15    16 2   
    31    15    24 1   
    32    16    17 1   
    33    17    18 1   
    34    18    19 ar  
    35    18    23 ar  
    36    19    20 ar  
    37    19    52 1   
    38    20    21 ar  
    39    20    53 1   
    40    21    22 ar  
    41    21    54 1   
    42    22    23 ar  
    43    22    55 1   
    44    23    56 1   
    45    24    25 1   
    46    24    57 1   
    47    24    58 1   
    48    25    26 1   
    49    26    27 2   
    50    26    28 1   
    51    28    29 1   
    52    28    59 1   
    53    29    30 1   
    54    29    32 1   
    55    29    60 1   
    56    30    31 1   
    57    30    61 1   
    58    30    62 1   
    59    31    63 1   
    60    31    64 1   
    61    31    65 1   
    62    32    33 ar  
    63    32    36 ar  
    64    33    34 ar  
    65    33    66 1   
    66    34    35 1   
    67    34    38 ar  
    68    35    67 1   
    69    35    68 1   
    70    36    37 ar  
    71    36    69 1   
    72    37    38 ar  
    73    37    70 1   
    74    38    39 1   
    75    39    40 1   
    76    39    41 1   
@<TRIPOS>SUBSTRUCTURE
     1 8W3         1 TEMP              0 ****  ****    0 ROOT
