@<TRIPOS>MOLECULE
8W3
   73    76     1     0     0
SMALL
No Charge or Current Charge


@<TRIPOS>ATOM
      1 C1          -9.2880   -15.9110    -6.3820 c          1 8W3       0.574000
      2 O2          -8.2050   -16.0840    -5.8390 o          1 8W3      -0.532000
      3 C9         -13.0480   -14.9840    -1.5500 ca         1 8W3       0.088000
      4 C10        -11.9420   -15.4320    -2.2880 ca         1 8W3      -0.069000
      5 C8         -13.5920   -13.7150    -1.7960 ca         1 8W3      -0.065000
      6 C7         -13.0290   -12.8870    -2.7830 ca         1 8W3      -0.187000
      7 C6         -11.9150   -13.3310    -3.5320 ca         1 8W3       0.145100
      8 O23        -11.3310   -12.5410    -4.5060 os         1 8W3      -0.346100
      9 C24        -11.8230   -11.2300    -4.8350 c3         1 8W3       0.146900
     10 C5         -11.3710   -14.6140    -3.2860 ca         1 8W3      -0.106300
     11 C4         -10.1690   -15.1280    -4.0820 c3         1 8W3      -0.010100
     12 C3         -10.5320   -15.5620    -5.5330 c3         1 8W3      -0.150700
     13 C11        -11.4890   -16.7720    -5.5850 c3         1 8W3       0.235800
     14 N12        -12.3450   -16.7860    -6.7870 nu         1 8W3      -0.919400
     15 C13        -12.0080   -16.5090    -8.1150 c2         1 8W3       0.592200
     16 N14        -12.8150   -16.8530    -9.0640 n2         1 8W3      -0.402700
     17 O62        -13.9960   -17.5410    -8.6460 os         1 8W3      -0.248100
     18 C63        -14.8950   -17.9410    -9.6200 ca         1 8W3       0.154100
     19 C68        -14.5320   -18.0720   -10.9790 ca         1 8W3      -0.154000
     20 C67        -15.4840   -18.4930   -11.9260 ca         1 8W3      -0.085000
     21 C66        -16.7960   -18.7880   -11.5200 ca         1 8W3      -0.153000
     22 C65        -17.1590   -18.6670   -10.1680 ca         1 8W3      -0.085000
     23 C64        -16.2080   -18.2470    -9.2220 ca         1 8W3      -0.154000
     24 C15        -10.7190   -15.7410    -8.4040 c3         1 8W3       0.050700
     25 N16         -9.4930   -16.2780    -7.7330 n          1 8W3      -0.394400
     26 C17         -8.7170   -17.2000    -8.4710 c          1 8W3       0.645100
     27 O18         -9.0050   -17.5220    -9.6140 o          1 8W3      -0.632100
     28 N19         -7.6220   -17.7370    -7.8490 ns         1 8W3      -0.486900
     29 C20         -6.7200   -18.7320    -8.4170 c3         1 8W3       0.180000
     30 C30         -7.3450   -20.1500    -8.3600 c3         1 8W3      -0.086400
     31 C35         -6.4720   -21.2390    -9.0180 c3         1 8W3      -0.083100
     32 C21         -5.3650   -18.6530    -7.7130 ca         1 8W3      -0.090300
     33 C25         -5.2470   -18.9120    -6.3320 ca         1 8W3      -0.216000
     34 C26         -4.0030   -18.8390    -5.6880 ca         1 8W3       0.327000
     35 N57         -3.9560   -19.1120    -4.3510 nv         1 8W3      -1.106000
     36 C29         -4.2100   -18.3130    -8.4380 ca         1 8W3      -0.178000
     37 C28         -2.9620   -18.2380    -7.7990 ca         1 8W3      -0.055000
     38 C27         -2.8420   -18.4970    -6.4150 ca         1 8W3      -0.186600
     39 C31         -1.4820   -18.4090    -5.7630 c          1 8W3       0.713600
     40 O32         -0.5080   -18.7310    -6.4280 o          1 8W3      -0.727000
     41 O33         -1.3920   -17.9780    -4.6210 o          1 8W3      -0.727000
     42 H1         -11.5330   -16.4180    -2.0850 ha         1 8W3       0.131000
     43 H2         -14.4490   -13.3720    -1.2210 ha         1 8W3       0.127000
     44 H3         -13.4690   -11.9090    -2.9490 ha         1 8W3       0.122000
     45 H4         -11.2150   -10.7870    -5.6340 h1         1 8W3       0.045367
     46 H5         -12.8610   -11.2790    -5.1860 h1         1 8W3       0.045367
     47 H6         -11.7750   -10.5640    -3.9640 h1         1 8W3       0.045367
     48 H7          -9.6940   -15.9690    -3.5600 hc         1 8W3       0.076700
     49 H8          -9.4050   -14.3410    -4.1250 hc         1 8W3       0.076700
     50 H9         -11.0790   -14.7430    -6.0100 hc         1 8W3       0.088700
     51 H10        -12.1440   -16.7570    -4.7050 h1         1 8W3       0.050200
     52 H11        -13.5190   -17.8580   -11.3100 ha         1 8W3       0.129500
     53 H12        -15.2030   -18.5920   -12.9720 ha         1 8W3       0.106500
     54 H13        -17.5310   -19.1140   -12.2530 ha         1 8W3       0.107000
     55 H14        -18.1750   -18.8980    -9.8540 ha         1 8W3       0.106500
     56 H15        -16.4890   -18.1540    -8.1760 ha         1 8W3       0.129500
     57 H16        -10.5710   -15.7200    -9.4900 h1         1 8W3       0.095200
     58 H17        -10.8640   -14.6910    -8.1290 h1         1 8W3       0.095200
     59 H18         -7.4250   -17.3840    -6.9190 hn         1 8W3       0.362500
     60 H19         -6.5710   -18.4770    -9.4750 h1         1 8W3       0.065700
     61 H20         -7.5400   -20.4270    -7.3170 hc         1 8W3       0.041700
     62 H21         -8.3170   -20.1350    -8.8670 hc         1 8W3       0.041700
     63 H22         -6.9850   -22.2080    -8.9880 hc         1 8W3       0.034367
     64 H23         -6.2680   -20.9910   -10.0670 hc         1 8W3       0.034367
     65 H24         -5.5140   -21.3450    -8.4940 hc         1 8W3       0.034367
     66 H25         -6.1320   -19.1760    -5.7590 ha         1 8W3       0.087000
     67 H26         -3.1090   -18.7930    -3.8740 hn         1 8W3       0.473000
     68 H27         -4.8190   -19.0710    -3.8140 hn         1 8W3       0.473000
     69 H28         -4.2750   -18.1070    -9.5040 ha         1 8W3       0.091000
     70 H29         -2.0830   -17.9720    -8.3820 ha         1 8W3       0.130000
     71 H31        -10.9040   -17.7010    -5.5270 h1         1 8W3       0.050200
     72 H32        -13.2370   -17.2740    -6.7190 hn         1 8W3       0.502000
     73 Cl2        -13.7540   -16.0170    -0.3130 cl         1 8W3      -0.218000
@<TRIPOS>BOND
     1     1     2 2   
     2     1    12 1   
     3     1    25 1   
     4     3     4 ar  
     5     3     5 ar  
     6     3    73 1   
     7     4    10 ar  
     8     4    42 1   
     9     5     6 ar  
    10     5    43 1   
    11     6     7 ar  
    12     6    44 1   
    13     7     8 1   
    14     7    10 ar  
    15     8     9 1   
    16     9    45 1   
    17     9    46 1   
    18     9    47 1   
    19    10    11 1   
    20    11    12 1   
    21    11    48 1   
    22    11    49 1   
    23    12    13 1   
    24    12    50 1   
    25    13    14 1   
    26    13    51 1   
    27    13    71 1   
    28    14    15 1   
    29    14    72 1   
    30    15    16 2   
    31    15    24 1   
    32    16    17 1   
    33    17    18 1   
    34    18    19 ar  
    35    18    23 ar  
    36    19    20 ar  
    37    19    52 1   
    38    20    21 ar  
    39    20    53 1   
    40    21    22 ar  
    41    21    54 1   
    42    22    23 ar  
    43    22    55 1   
    44    23    56 1   
    45    24    25 1   
    46    24    57 1   
    47    24    58 1   
    48    25    26 1   
    49    26    27 2   
    50    26    28 1   
    51    28    29 1   
    52    28    59 1   
    53    29    30 1   
    54    29    32 1   
    55    29    60 1   
    56    30    31 1   
    57    30    61 1   
    58    30    62 1   
    59    31    63 1   
    60    31    64 1   
    61    31    65 1   
    62    32    33 ar  
    63    32    36 ar  
    64    33    34 ar  
    65    33    66 1   
    66    34    35 1   
    67    34    38 ar  
    68    35    67 1   
    69    35    68 1   
    70    36    37 ar  
    71    36    69 1   
    72    37    38 ar  
    73    37    70 1   
    74    38    39 1   
    75    39    40 1   
    76    39    41 1   
@<TRIPOS>SUBSTRUCTURE
     1 8W3         1 TEMP              0 ****  ****    0 ROOT
