@<TRIPOS>MOLECULE
8W4
   90    95     1     0     0
SMALL
abcg2


@<TRIPOS>ATOM
      1 C21         -0.1080    -1.5610     3.3000 ca         1 8W4      -0.102500
      2 C23          0.6910    -3.8150     3.5550 ca         1 8W4      -0.108000
      3 C31         -6.4390    -1.2710    -1.6100 c6         1 8W4       0.065000
      4 C30         -5.6960    -1.9700    -0.4930 c6         1 8W4       0.137800
      5 C28         -4.2160    -0.1490    -0.1380 c6         1 8W4       0.057500
      6 C11          3.4670     1.1910     4.5120 c3         1 8W4      -0.088100
      7 C16          0.5680    -0.9680    -0.1810 c          1 8W4       0.626700
      8 C15          1.9290    -0.3770    -0.0130 ca         1 8W4      -0.174600
      9 C13          3.5550     0.9020     1.2080 ca         1 8W4      -0.101800
     10 C12          4.5070     0.5950     0.2150 ca         1 8W4      -0.046200
     11 C20         -1.1780    -2.0020     2.5280 ca         1 8W4      -0.077300
     12 C19         -2.1480    -1.0280     1.9250 c3         1 8W4      -0.048100
     13 C18         -1.8050    -0.7300     0.4580 c3         1 8W4       0.089700
     14 C24         -0.3780    -4.2690     2.7920 ca         1 8W4      -0.107000
     15 C26         -2.7450     0.3080    -0.1840 c3         1 8W4       0.172300
     16 S02          5.7990     0.6410    -2.7870 s6         1 8W4       1.165100
     17 C03          6.5670     1.9280    -1.6780 c3         1 8W4      -0.270000
     18 C04          5.6410     3.1340    -1.5800 c3         1 8W4      -0.070100
     19 C05          7.8960     2.3310    -2.3110 c3         1 8W4      -0.070100
     20 C06          6.8460     1.3160    -0.2980 c3         1 8W4       0.091600
     21 N07          5.6760     1.2100     0.5410 na         1 8W4      -0.088700
     22 C08          5.4800     1.9060     1.7150 cc         1 8W4      -0.154100
     23 C09          4.2080     1.7360     2.1730 cd         1 8W4      -0.120400
     24 C14          2.2600     0.4050     1.0850 ca         1 8W4      -0.019000
     25 N17         -0.4450    -0.2550     0.3450 ns         1 8W4      -0.498900
     26 C22          0.8230    -2.4570     3.8090 ca         1 8W4      -0.107000
     27 C25         -1.3020    -3.3670     2.2830 ca         1 8W4      -0.102500
     28 O27         -2.5420     1.5710     0.4000 oh         1 8W4      -0.636000
     29 N29         -4.3100    -1.5610    -0.4370 n7         1 8W4      -0.848400
     30 N32         -6.1300     0.1500    -1.6570 n          1 8W4      -0.411800
     31 C33         -7.0020     0.9330    -2.5200 c3         1 8W4       0.140300
     32 C34         -8.3320     1.2290    -1.8730 ca         1 8W4      -0.112300
     33 C35         -9.4840     0.5640    -2.2800 ca         1 8W4      -0.097500
     34 C36        -10.7060     0.8190    -1.6690 ca         1 8W4      -0.114000
     35 C37        -10.7880     1.7480    -0.6420 ca         1 8W4      -0.104000
     36 C38         -9.6420     2.4210    -0.2310 ca         1 8W4      -0.114000
     37 C39         -8.4240     2.1630    -0.8420 ca         1 8W4      -0.097500
     38 C40         -5.1220     0.7500    -0.9910 c          1 8W4       0.534000
     39 O41         -4.9440     1.9610    -1.0340 o          1 8W4      -0.546000
     40 O42          0.4110    -2.0250    -0.7780 o          1 8W4      -0.607100
     41 C43          2.9000    -0.6820    -0.9840 ca         1 8W4      -0.002000
     42 C44          4.1870    -0.1990    -0.8870 ca         1 8W4       0.204000
     43 N45          5.1780    -0.5670    -1.8340 nh         1 8W4      -0.759300
     44 C46          5.9400    -1.7850    -1.5670 c3         1 8W4       0.208100
     45 O47          6.8530     0.0200    -3.5770 o          1 8W4      -0.516000
     46 H211        -0.0070    -0.5020     3.5130 ha         1 8W4       0.108500
     47 H231         1.4140    -4.5160     3.9510 ha         1 8W4       0.111000
     48 H311        -6.1840    -1.7220    -2.5760 h1         1 8W4       0.049700
     49 H312        -7.5170    -1.3940    -1.4750 h1         1 8W4       0.049700
     50 H302        -6.1570    -1.7420     0.4720 h1         1 8W4       0.068200
     51 H301        -5.7630    -3.0490    -0.6340 h1         1 8W4       0.068200
     52 H281        -4.5750    -0.0160     0.8940 h1         1 8W4       0.078700
     53 H102         2.6320     2.7030     3.2240 hc         1 8W4       0.044700
     54 H101         4.2320     3.0800     3.8160 hc         1 8W4       0.044700
     55 H113         4.4410     0.7930     4.7990 hc         1 8W4       0.034700
     56 H112         2.9890     1.5910     5.4060 hc         1 8W4       0.034700
     57 H111         2.8610     0.3530     4.1620 hc         1 8W4       0.034700
     58 H192        -3.1600    -1.4340     1.9670 hc         1 8W4       0.052200
     59 H191        -2.1430    -0.1030     2.5080 hc         1 8W4       0.052200
     60 H181        -1.8650    -1.6580    -0.1080 h1         1 8W4       0.098700
     61 H241        -0.4930    -5.3270     2.5940 ha         1 8W4       0.110500
     62 H261        -2.4390     0.4080    -1.2320 h1         1 8W4       0.090700
     63 H043         4.6390     2.8870    -1.2340 hc         1 8W4       0.053533
     64 H041         6.0740     3.8440    -0.8740 hc         1 8W4       0.053533
     65 H042         5.5530     3.6380    -2.5400 hc         1 8W4       0.053533
     66 H051         7.7720     2.6720    -3.3380 hc         1 8W4       0.053533
     67 H053         8.3050     3.1620    -1.7360 hc         1 8W4       0.053533
     68 H052         8.6240     1.5220    -2.3000 hc         1 8W4       0.053533
     69 H062         7.3590     0.3560    -0.3850 h1         1 8W4       0.065700
     70 H061         7.5440     1.9800     0.2130 h1         1 8W4       0.065700
     71 H081         6.2890     2.4780     2.1430 h4         1 8W4       0.215000
     72 H141         1.5310     0.6160     1.8570 ha         1 8W4       0.119000
     73 H171        -0.2480     0.6550     0.7310 hn         1 8W4       0.322500
     74 H221         1.6500    -2.0950     4.4070 ha         1 8W4       0.110500
     75 H251        -2.1340    -3.7290     1.6880 ha         1 8W4       0.108500
     76 H271        -3.0260     1.6190     1.2310 ho         1 8W4       0.442000
     77 H291        -3.8600    -1.7630    -1.3240 hn         1 8W4       0.426000
     78 H332        -6.4960     1.8570    -2.7930 h1         1 8W4       0.066700
     79 H331        -7.1570     0.3650    -3.4410 h1         1 8W4       0.066700
     80 H351        -9.4260    -0.1630    -3.0820 ha         1 8W4       0.118500
     81 H361       -11.5920     0.2890    -1.9950 ha         1 8W4       0.113000
     82 H371       -11.7380     1.9490    -0.1640 ha         1 8W4       0.113000
     83 H381        -9.6990     3.1500     0.5670 ha         1 8W4       0.113000
     84 H391        -7.5370     2.6950    -0.5190 ha         1 8W4       0.118500
     85 H431         2.6400    -1.3110    -1.8250 ha         1 8W4       0.150000
     86 H463         6.6650    -1.6690    -0.7600 h1         1 8W4       0.052700
     87 H462         5.2290    -2.5570    -1.2790 h1         1 8W4       0.052700
     88 H461         6.4500    -2.1200    -2.4640 h1         1 8W4       0.052700
     89 O01          4.6790     1.2640    -3.4750 o          1 8W4      -0.516000
     90 C10          3.6120     2.2660     3.4360 c3         1 8W4      -0.003200
@<TRIPOS>BOND
     1     1    11 ar  
     2     1    26 ar  
     3     1    46 1   
     4     2    14 ar  
     5     2    26 ar  
     6     2    47 1   
     7     3     4 1   
     8     3    30 1   
     9     3    48 1   
    10     3    49 1   
    11     4    29 1   
    12     4    50 1   
    13     4    51 1   
    14     5    15 1   
    15     5    29 1   
    16     5    38 1   
    17     5    52 1   
    18     6    55 1   
    19     6    56 1   
    20     6    57 1   
    21     6    90 1   
    22     7     8 1   
    23     7    25 1   
    24     7    40 2   
    25     8    24 ar  
    26     8    41 ar  
    27     9    10 ar  
    28     9    23 1   
    29     9    24 ar  
    30    10    21 1   
    31    10    42 ar  
    32    11    12 1   
    33    11    27 ar  
    34    12    13 1   
    35    12    58 1   
    36    12    59 1   
    37    13    15 1   
    38    13    25 1   
    39    13    60 1   
    40    14    27 ar  
    41    14    61 1   
    42    15    28 1   
    43    15    62 1   
    44    16    17 1   
    45    16    43 1   
    46    16    45 2   
    47    16    89 2   
    48    17    18 1   
    49    17    19 1   
    50    17    20 1   
    51    18    63 1   
    52    18    64 1   
    53    18    65 1   
    54    19    66 1   
    55    19    67 1   
    56    19    68 1   
    57    20    21 1   
    58    20    69 1   
    59    20    70 1   
    60    21    22 1   
    61    22    23 2   
    62    22    71 1   
    63    23    90 1   
    64    24    72 1   
    65    25    73 1   
    66    26    74 1   
    67    27    75 1   
    68    28    76 1   
    69    29    77 1   
    70    30    31 1   
    71    30    38 1   
    72    31    32 1   
    73    31    78 1   
    74    31    79 1   
    75    32    33 ar  
    76    32    37 ar  
    77    33    34 ar  
    78    33    80 1   
    79    34    35 ar  
    80    34    81 1   
    81    35    36 ar  
    82    35    82 1   
    83    36    37 ar  
    84    36    83 1   
    85    37    84 1   
    86    38    39 2   
    87    41    42 ar  
    88    41    85 1   
    89    42    43 1   
    90    43    44 1   
    91    44    86 1   
    92    44    87 1   
    93    44    88 1   
    94    53    90 1   
    95    54    90 1   
@<TRIPOS>SUBSTRUCTURE
     1 8W4         1 TEMP              0 ****  ****    0 ROOT
