@<TRIPOS>MOLECULE
8W4
   90    95     1     0     0
SMALL
No Charge or Current Charge


@<TRIPOS>ATOM
      1 C21         -0.6330    -0.6770     4.0990 ca         1 8W4      -0.102500
      2 C23          0.6430    -2.6130     4.8400 ca         1 8W4      -0.108000
      3 C31         -6.6700    -1.9520    -1.3480 c6         1 8W4       0.065000
      4 C30         -5.8360    -2.4410    -0.1330 c6         1 8W4       0.137800
      5 C28         -4.3130    -0.5310    -0.2770 c6         1 8W4       0.057500
      6 C11          3.8480    -0.4260     4.3410 c3         1 8W4      -0.088100
      7 C16          0.3670    -0.6030    -0.4380 c          1 8W4       0.626700
      8 C15          1.8040    -0.1870    -0.2460 ca         1 8W4      -0.174600
      9 C13          3.6670     0.5190     1.1210 ca         1 8W4      -0.101800
     10 C12          4.4970     0.5560     0.0340 ca         1 8W4      -0.046200
     11 C20         -1.2970    -1.4700     3.1420 ca         1 8W4      -0.077300
     12 C19         -2.3290    -0.8460     2.2040 c3         1 8W4      -0.048100
     13 C18         -1.8740    -0.8400     0.7160 c3         1 8W4       0.089700
     14 C24         -0.0170    -3.4090     3.8890 ca         1 8W4      -0.107000
     15 C26         -2.8180    -0.0330    -0.2440 c3         1 8W4       0.172300
     16 S02          5.7850     1.6580    -2.9440 s6         1 8W4       1.165100
     17 C03          6.7470     2.2750    -1.4900 c3         1 8W4      -0.270000
     18 C04          6.0420     3.5180    -0.8570 c3         1 8W4      -0.070100
     19 C05          8.1620     2.7180    -1.9700 c3         1 8W4      -0.070100
     20 C06          6.9100     1.1250    -0.4480 c3         1 8W4       0.091600
     21 N07          5.7660     0.9320     0.4680 na         1 8W4      -0.088700
     22 C08          5.7670     1.1450     1.8600 cc         1 8W4      -0.154100
     23 C09          4.4660     0.8850     2.2680 cd         1 8W4      -0.120400
     24 C14          2.3170     0.1600     1.0300 ca         1 8W4      -0.019000
     25 N17         -0.4720    -0.3960     0.6320 ns         1 8W4      -0.498900
     26 C22          0.3330    -1.2470     4.9460 ca         1 8W4      -0.107000
     27 C25         -0.9840    -2.8400     3.0440 ca         1 8W4      -0.102500
     28 O27         -2.7280     1.3730     0.0770 oh         1 8W4      -0.636000
     29 N29         -4.4160    -2.0310    -0.2380 n7         1 8W4      -0.848400
     30 N32         -6.3290    -0.5860    -1.8440 n          1 8W4      -0.411800
     31 C33         -7.2180    -0.0100    -2.8780 c3         1 8W4       0.140300
     32 C34         -8.2880     0.9020    -2.2930 ca         1 8W4      -0.112300
     33 C35         -9.5410     0.3780    -1.9170 ca         1 8W4      -0.097500
     34 C36        -10.5270     1.2190    -1.3720 ca         1 8W4      -0.114000
     35 C37        -10.2660     2.5890    -1.1990 ca         1 8W4      -0.104000
     36 C38         -9.0190     3.1170    -1.5710 ca         1 8W4      -0.114000
     37 C39         -8.0320     2.2760    -2.1160 ca         1 8W4      -0.097500
     38 C40         -5.1250     0.0730    -1.4850 c          1 8W4       0.534000
     39 O41         -4.7470     1.0640    -2.0990 o          1 8W4      -0.546000
     40 O42         -0.0290    -1.1210    -1.4730 o          1 8W4      -0.607100
     41 C43          2.6770    -0.1640    -1.3690 ca         1 8W4      -0.002000
     42 C44          4.0350     0.2160    -1.2490 ca         1 8W4       0.204000
     43 N45          4.9020     0.2280    -2.3950 nh         1 8W4      -0.759300
     44 C46          4.9350    -0.9340    -3.3030 c3         1 8W4       0.208100
     45 O47          6.7240     1.1840    -3.9680 o          1 8W4      -0.516000
     46 H211        -0.8610     0.3830     4.1890 ha         1 8W4       0.108500
     47 H231         1.3920    -3.0530     5.4940 ha         1 8W4       0.111000
     48 H311        -6.5160    -2.6570    -2.1770 h1         1 8W4       0.049700
     49 H312        -7.7380    -1.9930    -1.0880 h1         1 8W4       0.049700
     50 H302        -6.2670    -2.0220     0.7880 h1         1 8W4       0.068200
     51 H301        -5.9100    -3.5370    -0.0550 h1         1 8W4       0.068200
     52 H281        -4.8060    -0.1360     0.6230 h1         1 8W4       0.078700
     53 H102         2.9900     1.4580     3.7160 hc         1 8W4       0.044700
     54 H101         4.6440     1.5820     4.2910 hc         1 8W4       0.044700
     55 H113         4.8230    -0.9250     4.3660 hc         1 8W4       0.034700
     56 H112         3.4810    -0.3360     5.3700 hc         1 8W4       0.034700
     57 H111         3.1500    -1.0590     3.7800 hc         1 8W4       0.034700
     58 H192        -3.2760    -1.3930     2.2910 hc         1 8W4       0.052200
     59 H191        -2.5440     0.1790     2.5260 hc         1 8W4       0.052200
     60 H181        -1.8850    -1.8850     0.3770 h1         1 8W4       0.098700
     61 H241         0.2220    -4.4670     3.8070 ha         1 8W4       0.110500
     62 H261        -2.4330    -0.1900    -1.2610 h1         1 8W4       0.090700
     63 H043         5.0000     3.3040    -0.5890 hc         1 8W4       0.053533
     64 H041         6.5630     3.8420     0.0520 hc         1 8W4       0.053533
     65 H042         6.0340     4.3650    -1.5550 hc         1 8W4       0.053533
     66 H051         8.0940     3.4780    -2.7580 hc         1 8W4       0.053533
     67 H053         8.7400     3.1480    -1.1420 hc         1 8W4       0.053533
     68 H052         8.7350     1.8690    -2.3640 hc         1 8W4       0.053533
     69 H062         7.1310     0.1740    -0.9520 h1         1 8W4       0.065700
     70 H061         7.7800     1.3490     0.1830 h1         1 8W4       0.065700
     71 H081         6.6480     1.4480     2.4160 h4         1 8W4       0.215000
     72 H141         1.7080     0.1350     1.9290 ha         1 8W4       0.119000
     73 H171        -0.0680     0.0430     1.4470 hn         1 8W4       0.322500
     74 H221         0.8420    -0.6300     5.6830 ha         1 8W4       0.110500
     75 H251        -1.4890    -3.4630     2.3090 ha         1 8W4       0.108500
     76 H271        -2.9450     1.4730     1.0270 ho         1 8W4       0.442000
     77 H291        -4.0280    -2.4250    -1.1070 hn         1 8W4       0.426000
     78 H332        -6.6270     0.5460    -3.6180 h1         1 8W4       0.066700
     79 H331        -7.7060    -0.8280    -3.4260 h1         1 8W4       0.066700
     80 H351        -9.7510    -0.6820    -2.0460 ha         1 8W4       0.118500
     81 H361       -11.4930     0.8090    -1.0840 ha         1 8W4       0.113000
     82 H371       -11.0290     3.2400    -0.7770 ha         1 8W4       0.113000
     83 H381        -8.8150     4.1770    -1.4360 ha         1 8W4       0.113000
     84 H391        -7.0680     2.6930    -2.3990 ha         1 8W4       0.118500
     85 H431         2.2970    -0.4280    -2.3520 ha         1 8W4       0.150000
     86 H463         5.9660    -1.2800    -3.4520 h1         1 8W4       0.052700
     87 H462         4.3650    -1.7740    -2.8820 h1         1 8W4       0.052700
     88 H461         4.4990    -0.6780    -4.2770 h1         1 8W4       0.052700
     89 O01          4.7620     2.6460    -3.3070 o          1 8W4      -0.516000
     90 C10          3.9680     0.9630     3.6880 c3         1 8W4      -0.003200
@<TRIPOS>BOND
     1     1    11 ar  
     2     1    26 ar  
     3     1    46 1   
     4     2    14 ar  
     5     2    26 ar  
     6     2    47 1   
     7     3     4 1   
     8     3    30 1   
     9     3    48 1   
    10     3    49 1   
    11     4    29 1   
    12     4    50 1   
    13     4    51 1   
    14     5    15 1   
    15     5    29 1   
    16     5    38 1   
    17     5    52 1   
    18     6    55 1   
    19     6    56 1   
    20     6    57 1   
    21     6    90 1   
    22     7     8 1   
    23     7    25 1   
    24     7    40 2   
    25     8    24 ar  
    26     8    41 ar  
    27     9    10 ar  
    28     9    23 1   
    29     9    24 ar  
    30    10    21 1   
    31    10    42 ar  
    32    11    12 1   
    33    11    27 ar  
    34    12    13 1   
    35    12    58 1   
    36    12    59 1   
    37    13    15 1   
    38    13    25 1   
    39    13    60 1   
    40    14    27 ar  
    41    14    61 1   
    42    15    28 1   
    43    15    62 1   
    44    16    17 1   
    45    16    43 1   
    46    16    45 2   
    47    16    89 2   
    48    17    18 1   
    49    17    19 1   
    50    17    20 1   
    51    18    63 1   
    52    18    64 1   
    53    18    65 1   
    54    19    66 1   
    55    19    67 1   
    56    19    68 1   
    57    20    21 1   
    58    20    69 1   
    59    20    70 1   
    60    21    22 1   
    61    22    23 2   
    62    22    71 1   
    63    23    90 1   
    64    24    72 1   
    65    25    73 1   
    66    26    74 1   
    67    27    75 1   
    68    28    76 1   
    69    29    77 1   
    70    30    31 1   
    71    30    38 1   
    72    31    32 1   
    73    31    78 1   
    74    31    79 1   
    75    32    33 ar  
    76    32    37 ar  
    77    33    34 ar  
    78    33    80 1   
    79    34    35 ar  
    80    34    81 1   
    81    35    36 ar  
    82    35    82 1   
    83    36    37 ar  
    84    36    83 1   
    85    37    84 1   
    86    38    39 2   
    87    41    42 ar  
    88    41    85 1   
    89    42    43 1   
    90    43    44 1   
    91    44    86 1   
    92    44    87 1   
    93    44    88 1   
    94    53    90 1   
    95    54    90 1   
@<TRIPOS>SUBSTRUCTURE
     1 8W4         1 TEMP              0 ****  ****    0 ROOT
