@<TRIPOS>MOLECULE
8W5
   65    69     1     0     0
SMALL
bcc


@<TRIPOS>ATOM
      1 C1          -4.2310     4.9720    -0.9430 c3         1 8W5      -0.090100
      2 C2          -4.3090     3.6740    -0.1520 c3         1 8W5      -0.071400
      3 C3          -3.4250     2.5870    -0.7540 c3         1 8W5      -0.080400
      4 C7          -2.6390     0.0750     1.6790 c5         1 8W5       0.130100
      5 C9          -1.2250     0.2050     2.2530 c5         1 8W5      -0.077400
      6 C10         -0.3390    -0.0120     1.0340 c5         1 8W5      -0.068700
      7 C12          1.1620    -0.1930     1.2130 c6         1 8W5      -0.040700
      8 C14          1.7410     1.0150     1.9460 c6         1 8W5      -0.072400
      9 C15          3.2690     1.0190     1.9670 c6         1 8W5      -0.049200
     10 C16          3.7910     0.8640     0.5770 c2         1 8W5      -0.043400
     11 C20          4.6530     0.4860    -2.1000 ce         1 8W5      -0.246200
     12 C21          3.8970    -0.4550    -1.5320 c2         1 8W5      -0.101200
     13 C22          3.3580    -0.3880    -0.1400 c6         1 8W5       0.013400
     14 C27         -0.3950    -1.2930    -1.0870 c6         1 8W5      -0.099400
     15 C4          -3.5560     1.2620    -0.0450 c5         1 8W5       0.333900
     16 O6          -3.1250     1.3460     1.2840 os         1 8W5      -0.420600
     17 C17          4.5480     1.8070    -0.0010 ce         1 8W5      -0.253200
     18 C18          5.0260     1.7040    -1.3760 c          1 8W5       0.566500
     19 O19          5.7040     2.5810    -1.8970 o          1 8W5      -0.530100
     20 C23          1.7890    -0.3360    -0.1890 c6         1 8W5      -0.029700
     21 C25          1.1350    -1.4210    -1.0580 c6         1 8W5       0.157100
     22 C28         -1.0180    -1.1790     0.3000 c5         1 8W5      -0.016000
     23 C29         -2.5020    -0.7000     0.3300 c5         1 8W5       0.012800
     24 O30         -2.7190     0.3010    -0.6390 os         1 8W5      -0.419600
     25 O34         -4.6860    -3.2830    -1.3150 oh         1 8W5      -0.571800
     26 O36          1.5650    -2.6940    -0.6310 oh         1 8W5      -0.596800
     27 C37          3.9460    -1.5970     0.6240 c3         1 8W5      -0.067100
     28 H1          -3.2100     5.3580    -0.9680 hc         1 8W5       0.033367
     29 H2          -4.5520     4.8250    -1.9760 hc         1 8W5       0.033367
     30 H3          -4.8650     5.7430    -0.5050 hc         1 8W5       0.033367
     31 H4          -4.0160     3.8590     0.8840 hc         1 8W5       0.046700
     32 H5          -5.3460     3.3260    -0.1230 hc         1 8W5       0.046700
     33 H6          -3.7000     2.4360    -1.8020 hc         1 8W5       0.057700
     34 H7          -2.3750     2.8970    -0.7380 hc         1 8W5       0.057700
     35 H8          -3.3350    -0.4010     2.3740 h1         1 8W5       0.088700
     36 H9          -1.0900     1.1750     2.7310 hc         1 8W5       0.063700
     37 H10         -1.0500    -0.5570     3.0150 hc         1 8W5       0.063700
     38 H11         -0.4510     0.8750     0.3940 hc         1 8W5       0.062700
     39 H12          1.3640    -1.0890     1.8100 hc         1 8W5       0.066700
     40 H13          1.3910     1.9320     1.4590 hc         1 8W5       0.047700
     41 H14          1.3710     1.0420     2.9730 hc         1 8W5       0.047700
     42 H15          3.6390     1.9450     2.4100 hc         1 8W5       0.056700
     43 H16          3.6280     0.1990     2.5960 hc         1 8W5       0.056700
     44 H17          5.0220     0.3670    -3.1110 ha         1 8W5       0.148000
     45 H18          3.6710    -1.3560    -2.0910 ha         1 8W5       0.132000
     46 H19         -0.6340    -0.4010    -1.6700 hc         1 8W5       0.054200
     47 H20         -0.8010    -2.1440    -1.6460 hc         1 8W5       0.054200
     48 H21         -4.4940    -1.2400    -1.6620 h1         1 8W5       0.045200
     49 H22         -3.0290    -2.1640    -1.9100 h1         1 8W5       0.045200
     50 H26         -4.6050     0.9140    -0.0820 h2         1 8W5       0.034700
     51 H27          4.8310     2.6970     0.5520 ha         1 8W5       0.148000
     52 H28          1.5560     0.6010    -0.7150 hc         1 8W5       0.055700
     53 H29          1.4640    -1.2510    -2.0930 h1         1 8W5       0.029700
     54 H30         -5.0450    -3.3810    -2.2010 ho         1 8W5       0.407000
     55 H31          1.1190    -3.3580    -1.1660 ho         1 8W5       0.403000
     56 H32          3.4300    -1.7890     1.5630 hc         1 8W5       0.044367
     57 H33          3.8910    -2.5030     0.0270 hc         1 8W5       0.044367
     58 H34          4.9960    -1.4080     0.8520 hc         1 8W5       0.044367
     59 C31         -3.5270    -1.8150     0.1370 c          1 8W5       0.563100
     60 C35         -0.9130    -2.4940     1.0860 c3         1 8W5      -0.096100
     61 O32         -3.9820    -2.4370     1.0650 o          1 8W5      -0.477100
     62 C33         -3.9340    -2.1080    -1.2880 c3         1 8W5       0.041400
     63 H23         -1.5050    -2.4830     2.0010 hc         1 8W5       0.049033
     64 H24         -1.2660    -3.3370     0.4890 hc         1 8W5       0.049033
     65 H25          0.1130    -2.7130     1.3660 hc         1 8W5       0.049033
@<TRIPOS>BOND
     1     1     2 1   
     2     1    28 1   
     3     1    29 1   
     4     1    30 1   
     5     2     3 1   
     6     2    31 1   
     7     2    32 1   
     8     3    15 1   
     9     3    33 1   
    10     3    34 1   
    11     4     5 1   
    12     4    16 1   
    13     4    23 1   
    14     4    35 1   
    15     5     6 1   
    16     5    36 1   
    17     5    37 1   
    18     6     7 1   
    19     6    22 1   
    20     6    38 1   
    21     7     8 1   
    22     7    20 1   
    23     7    39 1   
    24     8     9 1   
    25     8    40 1   
    26     8    41 1   
    27     9    10 1   
    28     9    42 1   
    29     9    43 1   
    30    10    13 1   
    31    10    17 2   
    32    11    12 2   
    33    11    18 1   
    34    11    44 1   
    35    12    13 1   
    36    12    45 1   
    37    13    20 1   
    38    13    27 1   
    39    14    21 1   
    40    14    22 1   
    41    14    46 1   
    42    14    47 1   
    43    15    16 1   
    44    15    24 1   
    45    15    50 1   
    46    17    18 1   
    47    17    51 1   
    48    18    19 2   
    49    20    21 1   
    50    20    52 1   
    51    21    26 1   
    52    21    53 1   
    53    22    23 1   
    54    22    60 1   
    55    23    24 1   
    56    23    59 1   
    57    25    54 1   
    58    25    62 1   
    59    26    55 1   
    60    27    56 1   
    61    27    57 1   
    62    27    58 1   
    63    48    62 1   
    64    49    62 1   
    65    59    61 2   
    66    59    62 1   
    67    60    63 1   
    68    60    64 1   
    69    60    65 1   
@<TRIPOS>SUBSTRUCTURE
     1 8W5         1 TEMP              0 ****  ****    0 ROOT
