@<TRIPOS>MOLECULE
8W5
   65    69     1     0     0
SMALL
No Charge or Current Charge


@<TRIPOS>ATOM
      1 C1          -4.3950     5.1840    -0.8780 c3         1 8W5      -0.090100
      2 C2          -4.4530     3.8470    -0.1120 c3         1 8W5      -0.071400
      3 C3          -3.5630     2.7500    -0.7400 c3         1 8W5      -0.080400
      4 C7          -2.7100     0.1510     1.7030 c5         1 8W5       0.153300
      5 C9          -1.2650     0.2050     2.3000 c5         1 8W5      -0.077400
      6 C10         -0.3870     0.0300     1.0270 c5         1 8W5      -0.068700
      7 C12          1.1510    -0.1410     1.2070 c6         1 8W5      -0.040700
      8 C14          1.7630     1.1060     1.9050 c6         1 8W5      -0.072400
      9 C15          3.3010     1.0370     1.9660 c6         1 8W5      -0.049200
     10 C16          3.8820     0.8190     0.5730 c2         1 8W5      -0.043400
     11 C20          4.8300     0.3920    -2.0930 ce         1 8W5      -0.296200
     12 C21          3.9690    -0.5180    -1.5840 c2         1 8W5      -0.151200
     13 C22          3.3830    -0.4400    -0.1680 c6         1 8W5       0.013400
     14 C27         -0.4550    -1.3410    -1.1250 c6         1 8W5      -0.099400
     15 C4          -3.6180     1.3960    -0.0060 c5         1 8W5       0.380300
     16 O6          -3.0500     1.5010     1.3070 os         1 8W5      -0.467000
     17 C17          4.7420     1.7100     0.0270 ce         1 8W5      -0.303200
     18 C18          5.2960     1.5770    -1.3390 c          1 8W5       0.566500
     19 O19          6.0770     2.3900    -1.8110 o          1 8W5      -0.530100
     20 C23          1.8010    -0.3750    -0.2300 c6         1 8W5      -0.029700
     21 C25          1.0980    -1.5090    -1.1150 c6         1 8W5       0.180300
     22 C28         -1.0920    -1.1650     0.3000 c5         1 8W5      -0.016000
     23 C29         -2.5810    -0.6130     0.3270 c5         1 8W5       0.036000
     24 O30         -2.7610     0.4470    -0.6530 os         1 8W5      -0.466000
     25 O34         -3.6870    -3.7190    -1.3680 oh         1 8W5      -0.634000
     26 O36          1.4510    -2.8370    -0.7160 oh         1 8W5      -0.659000
     27 C37          3.9580    -1.6770     0.5970 c3         1 8W5      -0.067100
     28 H1          -3.3720     5.5770    -0.8960 hc         1 8W5       0.033367
     29 H2          -4.7360     5.0540    -1.9120 hc         1 8W5       0.033367
     30 H3          -5.0400     5.9280    -0.3960 hc         1 8W5       0.033367
     31 H4          -4.1430     4.0190     0.9260 hc         1 8W5       0.046700
     32 H5          -5.4920     3.4970    -0.0810 hc         1 8W5       0.046700
     33 H6          -3.8700     2.6000    -1.7810 hc         1 8W5       0.057700
     34 H7          -2.5250     3.1030    -0.7690 hc         1 8W5       0.057700
     35 H8          -3.4620    -0.2440     2.4000 h1         1 8W5       0.088700
     36 H9          -1.0730     1.1530     2.8130 hc         1 8W5       0.063700
     37 H10         -1.0950    -0.5870     3.0370 hc         1 8W5       0.063700
     38 H11         -0.4720     0.9390     0.4160 hc         1 8W5       0.062700
     39 H12          1.3420    -1.0160     1.8410 hc         1 8W5       0.066700
     40 H13          1.4680     2.0180     1.3670 hc         1 8W5       0.047700
     41 H14          1.3660     1.2040     2.9250 hc         1 8W5       0.047700
     42 H15          3.6900     1.9660     2.4040 hc         1 8W5       0.056700
     43 H16          3.6170     0.2320     2.6420 hc         1 8W5       0.056700
     44 H17          5.2330     0.2870    -3.0990 ha         1 8W5       0.198000
     45 H18          3.6820    -1.3850    -2.1810 ha         1 8W5       0.182000
     46 H19         -0.6800    -0.4570    -1.7350 hc         1 8W5       0.054200
     47 H20         -0.9190    -2.1840    -1.6530 hc         1 8W5       0.054200
     48 H21         -4.9050    -2.0150    -1.5660 h1         1 8W5       0.045200
     49 H22         -3.2020    -1.7610    -1.9480 h1         1 8W5       0.045200
     50 H26         -4.6450     1.0120     0.0470 h2         1 8W5       0.034700
     51 H27          5.0660     2.5930     0.5730 ha         1 8W5       0.198000
     52 H28          1.5920     0.5500    -0.7860 hc         1 8W5       0.055700
     53 H29          1.4270    -1.3670    -2.1540 h1         1 8W5       0.029700
     54 H30         -3.8930    -3.9840    -2.2930 ho         1 8W5       0.446000
     55 H31          1.0030    -3.4460    -1.3400 ho         1 8W5       0.442000
     56 H32          3.4700    -1.8420     1.5640 hc         1 8W5       0.044367
     57 H33          3.8640    -2.6040     0.0220 hc         1 8W5       0.044367
     58 H34          5.0300    -1.5460     0.7930 hc         1 8W5       0.044367
     59 C31         -3.6680    -1.7360     0.1710 c          1 8W5       0.563100
     60 C35         -0.9980    -2.5290     1.0750 c3         1 8W5      -0.096100
     61 O32         -4.3470    -2.1640     1.1010 o          1 8W5      -0.477100
     62 C33         -3.8840    -2.2860    -1.2680 c3         1 8W5       0.064600
     63 H23         -1.6140    -2.5430     1.9810 hc         1 8W5       0.049033
     64 H24         -1.3440    -3.3640     0.4530 hc         1 8W5       0.049033
     65 H25          0.0200    -2.7690     1.3950 hc         1 8W5       0.049033
@<TRIPOS>BOND
     1     1     2 1   
     2     1    28 1   
     3     1    29 1   
     4     1    30 1   
     5     2     3 1   
     6     2    31 1   
     7     2    32 1   
     8     3    15 1   
     9     3    33 1   
    10     3    34 1   
    11     4     5 1   
    12     4    16 1   
    13     4    23 1   
    14     4    35 1   
    15     5     6 1   
    16     5    36 1   
    17     5    37 1   
    18     6     7 1   
    19     6    22 1   
    20     6    38 1   
    21     7     8 1   
    22     7    20 1   
    23     7    39 1   
    24     8     9 1   
    25     8    40 1   
    26     8    41 1   
    27     9    10 1   
    28     9    42 1   
    29     9    43 1   
    30    10    13 1   
    31    10    17 2   
    32    11    12 2   
    33    11    18 1   
    34    11    44 1   
    35    12    13 1   
    36    12    45 1   
    37    13    20 1   
    38    13    27 1   
    39    14    21 1   
    40    14    22 1   
    41    14    46 1   
    42    14    47 1   
    43    15    16 1   
    44    15    24 1   
    45    15    50 1   
    46    17    18 1   
    47    17    51 1   
    48    18    19 2   
    49    20    21 1   
    50    20    52 1   
    51    21    26 1   
    52    21    53 1   
    53    22    23 1   
    54    22    60 1   
    55    23    24 1   
    56    23    59 1   
    57    25    54 1   
    58    25    62 1   
    59    26    55 1   
    60    27    56 1   
    61    27    57 1   
    62    27    58 1   
    63    48    62 1   
    64    49    62 1   
    65    59    61 2   
    66    59    62 1   
    67    60    63 1   
    68    60    64 1   
    69    60    65 1   
@<TRIPOS>SUBSTRUCTURE
     1 8W5         1 TEMP              0 ****  ****    0 ROOT
