@<TRIPOS>MOLECULE
8W6
   67    69     1     0     0
SMALL
No Charge or Current Charge


@<TRIPOS>ATOM
      1 C1          -9.9440   -17.1110    -6.2140 c          1 8W6       0.577000
      2 O2          -9.4140   -18.0580    -5.6490 o          1 8W6      -0.542000
      3 C9         -12.6070   -14.0470    -1.5710 ca         1 8W6       0.088000
      4 C8         -12.3330   -12.7020    -1.8630 ca         1 8W6      -0.065000
      5 C7         -11.3810   -12.3760    -2.8440 ca         1 8W6      -0.188000
      6 C6         -10.6980   -13.3990    -3.5410 ca         1 8W6       0.146100
      7 O23         -9.7530   -13.1150    -4.5100 os         1 8W6      -0.345100
      8 C24         -9.4090   -11.7690    -4.8840 c3         1 8W6       0.146900
      9 C10        -11.9330   -15.0680    -2.2580 ca         1 8W6      -0.069000
     10 C5         -10.9790   -14.7540    -3.2480 ca         1 8W6      -0.104300
     11 C4         -10.2620   -15.8850    -3.9880 c3         1 8W6      -0.010100
     12 C3         -10.8000   -16.1050    -5.4300 c3         1 8W6      -0.149700
     13 C11        -12.2520   -16.6100    -5.4520 c3         1 8W6       0.235800
     14 N12        -12.8860   -16.5550    -6.7820 nu         1 8W6      -0.922400
     15 C13        -12.3000   -16.8570    -8.0080 c2         1 8W6       0.578200
     16 N14        -12.9820   -17.5260    -8.8810 n2         1 8W6      -0.406700
     17 O62        -14.2800   -17.9440    -8.4570 os         1 8W6      -0.365000
     18 C63        -14.9320   -18.6910    -9.5010 c3         1 8W6       0.174600
     19 C64        -16.3170   -19.1100    -8.9800 c3         1 8W6      -0.099100
     20 C15        -10.9210   -16.2780    -8.3290 c3         1 8W6       0.050700
     21 N16         -9.7620   -16.8780    -7.5870 n          1 8W6      -0.392400
     22 C17         -8.5850   -17.1590    -8.3080 c          1 8W6       0.654100
     23 O18         -8.4670   -16.8960    -9.4950 o          1 8W6      -0.630100
     24 N19         -7.5580   -17.7260    -7.6000 ns         1 8W6      -0.489900
     25 C20         -6.2510   -18.0980    -8.1340 c3         1 8W6       0.179000
     26 C30         -6.1860   -19.6040    -8.4940 c3         1 8W6      -0.087400
     27 C35         -7.1610   -20.0400    -9.6090 c3         1 8W6      -0.088100
     28 C21         -5.1650   -17.7020    -7.1360 ca         1 8W6      -0.146300
     29 C29         -5.1130   -18.2820    -5.8520 ca         1 8W6      -0.125000
     30 C28         -4.1140   -17.9060    -4.9380 ca         1 8W6      -0.092000
     31 C25         -4.2040   -16.7360    -7.4850 ca         1 8W6      -0.125000
     32 C26         -3.2040   -16.3580    -6.5730 ca         1 8W6      -0.092000
     33 C27         -3.1420   -16.9390    -5.2840 ca         1 8W6      -0.116600
     34 C31         -2.0580   -16.5320    -4.2960 c          1 8W6       0.703600
     35 O33         -1.2400   -15.6890    -4.6370 o          1 8W6      -0.721000
     36 O32         -2.0410   -17.0610    -3.1930 o          1 8W6      -0.721000
     37 H1         -12.8580   -11.9140    -1.3280 ha         1 8W6       0.126000
     38 H2         -11.1880   -11.3260    -3.0480 ha         1 8W6       0.122000
     39 H3          -8.6430   -11.7770    -5.6700 h1         1 8W6       0.046033
     40 H4         -10.2860   -11.2350    -5.2710 h1         1 8W6       0.046033
     41 H5          -9.0080   -11.2150    -4.0260 h1         1 8W6       0.046033
     42 H6         -12.1580   -16.1050    -2.0210 ha         1 8W6       0.131000
     43 H7         -10.3400   -16.8220    -3.4210 hc         1 8W6       0.074700
     44 H8          -9.1880   -15.6620    -4.0380 hc         1 8W6       0.074700
     45 H9         -10.8050   -15.1450    -5.9540 hc         1 8W6       0.091700
     46 H10        -12.8550   -16.0080    -4.7590 h1         1 8W6       0.046700
     47 H11        -12.2720   -17.6430    -5.0770 h1         1 8W6       0.046700
     48 H12        -13.8560   -16.8710    -6.8050 hn         1 8W6       0.497000
     49 H13        -14.3530   -19.5880    -9.7610 h1         1 8W6       0.037200
     50 H14        -15.0520   -18.0790   -10.4050 h1         1 8W6       0.037200
     51 H15        -16.8510   -19.6840    -9.7450 hc         1 8W6       0.038367
     52 H16        -16.2200   -19.7370    -8.0850 hc         1 8W6       0.038367
     53 H17        -16.9190   -18.2290    -8.7290 hc         1 8W6       0.038367
     54 H18        -10.7790   -16.3980    -9.4090 h1         1 8W6       0.094700
     55 H19        -10.9440   -15.1970    -8.1510 h1         1 8W6       0.094700
     56 H20         -7.7590   -17.9450    -6.6310 hn         1 8W6       0.355500
     57 H21         -6.0810   -17.5310    -9.0600 h1         1 8W6       0.075700
     58 H22         -6.3810   -20.2080    -7.5990 hc         1 8W6       0.049700
     59 H23         -5.1640   -19.8400    -8.8160 hc         1 8W6       0.049700
     60 H24         -7.0060   -21.0970    -9.8570 hc         1 8W6       0.029367
     61 H25         -8.2030   -19.9160    -9.2920 hc         1 8W6       0.029367
     62 H26         -7.0000   -19.4490   -10.5180 hc         1 8W6       0.029367
     63 H27         -5.8490   -19.0260    -5.5560 ha         1 8W6       0.089000
     64 H28         -4.0980   -18.3720    -3.9550 ha         1 8W6       0.130000
     65 H29         -4.2290   -16.2720    -8.4690 ha         1 8W6       0.089000
     66 H30         -2.4740   -15.6100    -6.8730 ha         1 8W6       0.130000
     67 Cl2        -13.7990   -14.4530    -0.3430 cl         1 8W6      -0.220000
@<TRIPOS>BOND
     1     1     2 2   
     2     1    12 1   
     3     1    21 1   
     4     3     4 ar  
     5     3     9 ar  
     6     3    67 1   
     7     4     5 ar  
     8     4    37 1   
     9     5     6 ar  
    10     5    38 1   
    11     6     7 1   
    12     6    10 ar  
    13     7     8 1   
    14     8    39 1   
    15     8    40 1   
    16     8    41 1   
    17     9    10 ar  
    18     9    42 1   
    19    10    11 1   
    20    11    12 1   
    21    11    43 1   
    22    11    44 1   
    23    12    13 1   
    24    12    45 1   
    25    13    14 1   
    26    13    46 1   
    27    13    47 1   
    28    14    15 1   
    29    14    48 1   
    30    15    16 2   
    31    15    20 1   
    32    16    17 1   
    33    17    18 1   
    34    18    19 1   
    35    18    49 1   
    36    18    50 1   
    37    19    51 1   
    38    19    52 1   
    39    19    53 1   
    40    20    21 1   
    41    20    54 1   
    42    20    55 1   
    43    21    22 1   
    44    22    23 2   
    45    22    24 1   
    46    24    25 1   
    47    24    56 1   
    48    25    26 1   
    49    25    28 1   
    50    25    57 1   
    51    26    27 1   
    52    26    58 1   
    53    26    59 1   
    54    27    60 1   
    55    27    61 1   
    56    27    62 1   
    57    28    29 ar  
    58    28    31 ar  
    59    29    30 ar  
    60    29    63 1   
    61    30    33 ar  
    62    30    64 1   
    63    31    32 ar  
    64    31    65 1   
    65    32    33 ar  
    66    32    66 1   
    67    33    34 1   
    68    34    35 1   
    69    34    36 1   
@<TRIPOS>SUBSTRUCTURE
     1 8W6         1 TEMP              0 ****  ****    0 ROOT
