@<TRIPOS>MOLECULE
8W6
   67    69     1     0     0
SMALL
abcg2


@<TRIPOS>ATOM
      1 C1          -9.5210   -16.5820    -5.7300 c          1 8W6       0.577000
      2 O2          -8.6700   -17.1120    -5.0250 o          1 8W6      -0.542000
      3 C9         -13.3560   -14.2740    -1.5470 ca         1 8W6       0.088000
      4 C8         -13.3240   -12.9270    -1.8560 ca         1 8W6      -0.065000
      5 C7         -12.3580   -12.4560    -2.7420 ca         1 8W6      -0.188000
      6 C6         -11.4380   -13.3350    -3.3080 ca         1 8W6       0.146100
      7 O23        -10.4630   -12.9530    -4.1750 os         1 8W6      -0.345100
      8 C24        -10.3740   -11.5770    -4.5420 c3         1 8W6       0.146900
      9 C10        -12.4420   -15.1590    -2.1070 ca         1 8W6      -0.069000
     10 C5         -11.4750   -14.7070    -2.9940 ca         1 8W6      -0.104300
     11 C4         -10.4780   -15.6550    -3.6030 c3         1 8W6      -0.010100
     12 C3         -10.7260   -15.8950    -5.1030 c3         1 8W6      -0.149700
     13 C11        -11.9740   -16.7630    -5.3030 c3         1 8W6       0.235800
     14 N12        -12.5310   -16.7650    -6.6510 nu         1 8W6      -0.922400
     15 C13        -11.8730   -16.5880    -7.8210 c2         1 8W6       0.578200
     16 N14        -12.3580   -16.8950    -8.9810 n2         1 8W6      -0.406700
     17 O62        -13.6460   -17.4730    -8.8330 os         1 8W6      -0.365000
     18 C63        -14.1290   -17.9000   -10.1090 c3         1 8W6       0.174600
     19 C64        -15.5050   -18.4930    -9.9040 c3         1 8W6      -0.099100
     20 C15        -10.5340   -15.9070    -7.8660 c3         1 8W6       0.050700
     21 N16         -9.4850   -16.6060    -7.1090 n          1 8W6      -0.392400
     22 C17         -8.4740   -17.2560    -7.9070 c          1 8W6       0.654100
     23 O18         -8.5250   -17.1610    -9.1280 o          1 8W6      -0.630100
     24 N19         -7.5400   -17.9330    -7.2330 ns         1 8W6      -0.489900
     25 C20         -6.4230   -18.6160    -7.8820 c3         1 8W6       0.179000
     26 C30         -6.5360   -20.1370    -7.6940 c3         1 8W6      -0.087400
     27 C35         -7.7870   -20.7280    -8.3360 c3         1 8W6      -0.088100
     28 C21         -5.1040   -18.0770    -7.3680 ca         1 8W6      -0.146300
     29 C29         -4.7930   -18.1020    -6.0060 ca         1 8W6      -0.125000
     30 C28         -3.5770   -17.6160    -5.5480 ca         1 8W6      -0.092000
     31 C25         -4.1620   -17.5570    -8.2530 ca         1 8W6      -0.125000
     32 C26         -2.9420   -17.0740    -7.7910 ca         1 8W6      -0.092000
     33 C27         -2.6310   -17.0940    -6.4320 ca         1 8W6      -0.116600
     34 C31         -1.2950   -16.5550    -5.9220 c          1 8W6       0.703600
     35 O33         -0.4890   -16.1150    -6.7820 o          1 8W6      -0.721000
     36 O32         -1.1040   -16.5900    -4.6790 o          1 8W6      -0.721000
     37 H1         -14.0360   -12.2430    -1.4170 ha         1 8W6       0.126000
     38 H2         -12.3350   -11.4030    -2.9780 ha         1 8W6       0.122000
     39 H3          -9.5390   -11.5090    -5.2340 h1         1 8W6       0.046033
     40 H4         -11.2900   -11.2440    -5.0350 h1         1 8W6       0.046033
     41 H5         -10.1810   -10.9510    -3.6680 h1         1 8W6       0.046033
     42 H6         -12.4790   -16.2100    -1.8510 ha         1 8W6       0.131000
     43 H7         -10.5070   -16.6070    -3.0710 hc         1 8W6       0.074700
     44 H8          -9.4730   -15.2520    -3.4840 hc         1 8W6       0.074700
     45 H9         -10.8840   -14.9270    -5.5740 hc         1 8W6       0.091700
     46 H10        -12.7530   -16.3880    -4.6390 h1         1 8W6       0.046700
     47 H11        -11.7420   -17.7860    -4.9850 h1         1 8W6       0.046700
     48 H12        -13.3970   -17.2750    -6.7430 hn         1 8W6       0.497000
     49 H13        -13.4370   -18.6380   -10.5270 h1         1 8W6       0.037200
     50 H14        -14.1640   -17.0400   -10.7850 h1         1 8W6       0.037200
     51 H15        -15.9040   -18.8310   -10.8620 hc         1 8W6       0.038367
     52 H16        -15.4640   -19.3500    -9.2290 hc         1 8W6       0.038367
     53 H17        -16.1910   -17.7530    -9.4880 hc         1 8W6       0.038367
     54 H18        -10.2140   -15.8840    -8.8990 h1         1 8W6       0.094700
     55 H19        -10.6130   -14.8800    -7.5150 h1         1 8W6       0.094700
     56 H20         -7.6060   -17.9130    -6.2210 hn         1 8W6       0.355500
     57 H21         -6.4980   -18.3900    -8.9440 h1         1 8W6       0.075700
     58 H22         -6.5160   -20.3620    -6.6240 hc         1 8W6       0.049700
     59 H23         -5.6410   -20.5900    -8.1280 hc         1 8W6       0.049700
     60 H24         -7.8290   -21.8070    -8.1790 hc         1 8W6       0.029367
     61 H25         -8.6930   -20.2920    -7.9090 hc         1 8W6       0.029367
     62 H26         -7.8000   -20.5420    -9.4120 hc         1 8W6       0.029367
     63 H27         -5.5060   -18.5040    -5.2960 ha         1 8W6       0.089000
     64 H28         -3.3460   -17.6360    -4.4920 ha         1 8W6       0.130000
     65 H29         -4.3870   -17.5280    -9.3130 ha         1 8W6       0.089000
     66 H30         -2.2170   -16.6700    -8.4860 ha         1 8W6       0.130000
     67 CL2        -14.5640   -14.8810    -0.4270 cl         1 8W6      -0.220000
@<TRIPOS>BOND
     1     1     2 2   
     2     1    12 1   
     3     1    21 1   
     4     3     4 ar  
     5     3     9 ar  
     6     3    67 1   
     7     4     5 ar  
     8     4    37 1   
     9     5     6 ar  
    10     5    38 1   
    11     6     7 1   
    12     6    10 ar  
    13     7     8 1   
    14     8    39 1   
    15     8    40 1   
    16     8    41 1   
    17     9    10 ar  
    18     9    42 1   
    19    10    11 1   
    20    11    12 1   
    21    11    43 1   
    22    11    44 1   
    23    12    13 1   
    24    12    45 1   
    25    13    14 1   
    26    13    46 1   
    27    13    47 1   
    28    14    15 1   
    29    14    48 1   
    30    15    16 2   
    31    15    20 1   
    32    16    17 1   
    33    17    18 1   
    34    18    19 1   
    35    18    49 1   
    36    18    50 1   
    37    19    51 1   
    38    19    52 1   
    39    19    53 1   
    40    20    21 1   
    41    20    54 1   
    42    20    55 1   
    43    21    22 1   
    44    22    23 2   
    45    22    24 1   
    46    24    25 1   
    47    24    56 1   
    48    25    26 1   
    49    25    28 1   
    50    25    57 1   
    51    26    27 1   
    52    26    58 1   
    53    26    59 1   
    54    27    60 1   
    55    27    61 1   
    56    27    62 1   
    57    28    29 ar  
    58    28    31 ar  
    59    29    30 ar  
    60    29    63 1   
    61    30    33 ar  
    62    30    64 1   
    63    31    32 ar  
    64    31    65 1   
    65    32    33 ar  
    66    32    66 1   
    67    33    34 1   
    68    34    35 1   
    69    34    36 1   
@<TRIPOS>SUBSTRUCTURE
     1 8W6         1 TEMP              0 ****  ****    0 ROOT
