@<TRIPOS>MOLECULE
8W7
   60    64     1     0     0
SMALL
abcg2


@<TRIPOS>ATOM
      1 C1          -3.0410    -4.3420     0.3150 ca         1 8W7      -0.081000
      2 C2          -1.7780    -3.7480     0.2550 ca         1 8W7      -0.177000
      3 C3          -1.6460    -2.3650     0.1360 ca         1 8W7       0.157100
      4 C4          -4.2010    -3.5880     0.2580 ca         1 8W7      -0.076000
      5 C5          -4.0480    -2.2150     0.1380 ca         1 8W7      -0.122600
      6 C6          -2.8120    -1.6090     0.0780 ca         1 8W7      -0.121300
      7 N1          -4.4160     0.0160    -0.0770 n          1 8W7      -0.425800
      8 N2          -3.5760     3.1550    -0.3650 ns         1 8W7      -0.485500
      9 N3           6.3150     0.9150     0.0690 n3         1 8W7      -0.717600
     10 C7          -2.9700    -0.1310    -0.0640 c5         1 8W7       0.156300
     11 C8          -5.0820    -1.1660     0.0340 c          1 8W7       0.580600
     12 C9          -5.1380     1.2620    -0.2370 c6         1 8W7       0.052700
     13 C10         -5.5620     1.8970     1.0800 c6         1 8W7      -0.092400
     14 C11         -4.3720     2.4470     1.8450 c6         1 8W7      -0.163400
     15 C12         -3.5140     3.3480     1.0060 c          1 8W7       0.578000
     16 C13         -4.2980     2.2210    -1.0660 c          1 8W7       0.564000
     17 C14          0.7290    -2.4370     0.0470 c3         1 8W7       0.212900
     18 C15          1.8560    -1.4620    -0.0920 ca         1 8W7      -0.101300
     19 O2          -4.2450     2.1670    -2.2720 o          1 8W7      -0.501000
     20 C22          6.8620    -0.2210    -0.6510 c6         1 8W7       0.125800
     21 C23          8.1430    -0.6900     0.0120 c6         1 8W7       0.153100
     22 O5           9.0960     0.3460     0.0990 os         1 8W7      -0.449000
     23 C24          8.5700     1.4530     0.7990 c6         1 8W7       0.153100
     24 C25          7.3040     1.9740     0.1480 c6         1 8W7       0.125800
     25 C20          3.9580     0.3780    -0.3660 ca         1 8W7      -0.072300
     26 C19          3.7230    -0.2550     0.8520 ca         1 8W7      -0.102500
     27 C17          2.6820    -1.1610     0.9870 ca         1 8W7      -0.087500
     28 C18          3.1310     0.0770    -1.4430 ca         1 8W7      -0.102500
     29 C16          2.0910    -0.8300    -1.3100 ca         1 8W7      -0.087500
     30 O4          -0.4860    -1.6930     0.0690 os         1 8W7      -0.340100
     31 O3          -2.7850     4.2000     1.4580 o          1 8W7      -0.512000
     32 H1          -3.1000    -5.4180     0.4060 ha         1 8W7       0.119000
     33 H2          -0.9080    -4.3880     0.3040 ha         1 8W7       0.120000
     34 H3          -5.1790    -4.0480     0.3020 ha         1 8W7       0.139000
     35 H4          -3.0030     3.7810    -0.9220 hn         1 8W7       0.328500
     36 H6          -2.5060     0.4100     0.7650 h1         1 8W7       0.070200
     37 H7          -2.5160     0.2320    -0.9910 h1         1 8W7       0.070200
     38 H8          -6.0290     1.0480    -0.8300 h1         1 8W7       0.106700
     39 H9          -6.2690     2.7020     0.8630 hc         1 8W7       0.070700
     40 H10         -6.0980     1.1660     1.6840 hc         1 8W7       0.070700
     41 H11         -4.6910     3.0100     2.7230 hc         1 8W7       0.083200
     42 H12         -3.7410     1.6370     2.2230 hc         1 8W7       0.083200
     43 H13          0.7190    -3.1370    -0.7940 h1         1 8W7       0.043700
     44 H14          0.8340    -3.0210     0.9670 h1         1 8W7       0.043700
     45 H15          6.1440    -1.0430    -0.6440 h1         1 8W7       0.042950
     46 H16          7.0620     0.0290    -1.7080 h1         1 8W7       0.042950
     47 H17          7.9100    -1.0840     1.0120 h1         1 8W7       0.050700
     48 H18          8.5900    -1.4970    -0.5710 h1         1 8W7       0.050700
     49 H19          8.3560     1.1810     1.8420 h1         1 8W7       0.050700
     50 H20          9.3360     2.2300     0.8050 h1         1 8W7       0.050700
     51 H21          7.5450     2.3870    -0.8470 h1         1 8W7       0.042950
     52 H22          6.9090     2.7970     0.7500 h1         1 8W7       0.042950
     53 H23          4.7860     2.3010     0.0170 h1         1 8W7       0.042200
     54 H24          5.1840     1.6560    -1.5690 h1         1 8W7       0.042200
     55 H25          4.3670    -0.0440     1.6960 ha         1 8W7       0.122500
     56 H26          2.5140    -1.6450     1.9420 ha         1 8W7       0.116000
     57 H27          3.3090     0.5490    -2.4020 ha         1 8W7       0.122500
     58 H28          1.4670    -1.0590    -2.1660 ha         1 8W7       0.116000
     59 O1          -6.2920    -1.3020     0.0380 o          1 8W7      -0.537000
     60 C21          5.0720     1.3820    -0.5060 c3         1 8W7       0.211100
@<TRIPOS>BOND
     1     1     2 ar  
     2     1     4 ar  
     3     1    32 1   
     4     2     3 ar  
     5     2    33 1   
     6     3     6 ar  
     7     3    30 1   
     8     4     5 ar  
     9     4    34 1   
    10     5     6 ar  
    11     5    11 1   
    12     6    10 1   
    13     7    10 1   
    14     7    11 1   
    15     7    12 1   
    16     8    15 1   
    17     8    16 1   
    18     8    35 1   
    19     9    20 1   
    20     9    24 1   
    21     9    60 1   
    22    10    36 1   
    23    10    37 1   
    24    11    59 2   
    25    12    13 1   
    26    12    16 1   
    27    12    38 1   
    28    13    14 1   
    29    13    39 1   
    30    13    40 1   
    31    14    15 1   
    32    14    41 1   
    33    14    42 1   
    34    15    31 2   
    35    16    19 2   
    36    17    18 1   
    37    17    30 1   
    38    17    43 1   
    39    17    44 1   
    40    18    27 ar  
    41    18    29 ar  
    42    20    21 1   
    43    20    45 1   
    44    20    46 1   
    45    21    22 1   
    46    21    47 1   
    47    21    48 1   
    48    22    23 1   
    49    23    24 1   
    50    23    49 1   
    51    23    50 1   
    52    24    51 1   
    53    24    52 1   
    54    25    26 ar  
    55    25    28 ar  
    56    25    60 1   
    57    26    27 ar  
    58    26    55 1   
    59    27    56 1   
    60    28    29 ar  
    61    28    57 1   
    62    29    58 1   
    63    53    60 1   
    64    54    60 1   
@<TRIPOS>SUBSTRUCTURE
     1 8W7         1 TEMP              0 ****  ****    0 ROOT
