@<TRIPOS>MOLECULE
8W7
   60    64     1     0     0
SMALL
No Charge or Current Charge


@<TRIPOS>ATOM
      1 C1          -3.0870    -4.5140     0.0810 ca         1 8W7      -0.081000
      2 C2          -1.8160    -3.8960     0.0290 ca         1 8W7      -0.177000
      3 C3          -1.7060    -2.4830    -0.0020 ca         1 8W7       0.157100
      4 C4          -4.2590    -3.7330     0.1040 ca         1 8W7      -0.076000
      5 C5          -4.1220    -2.3380     0.0730 ca         1 8W7      -0.122600
      6 C6          -2.8830    -1.7200     0.0210 ca         1 8W7      -0.121300
      7 N1          -4.4950    -0.0660     0.0450 n          1 8W7      -0.425800
      8 N2          -4.2320     3.4760    -0.6300 ns         1 8W7      -0.485500
      9 N3           6.4000     0.9010     0.1860 n3         1 8W7      -0.717600
     10 C7          -3.0030    -0.2030    -0.0040 c5         1 8W7       0.156300
     11 C8          -5.1660    -1.2960     0.0860 c          1 8W7       0.580600
     12 C9          -5.1890     1.2540     0.0270 c6         1 8W7       0.052700
     13 C10         -5.2740     1.8650     1.4550 c6         1 8W7      -0.092400
     14 C11         -4.1230     2.8580     1.7520 c6         1 8W7      -0.163400
     15 C12         -3.9130     3.8810     0.6330 c          1 8W7       0.578000
     16 C13         -4.6380     2.2390    -1.0480 c          1 8W7       0.564000
     17 C14          0.7570    -2.5270    -0.0770 c3         1 8W7       0.212900
     18 C15          1.8810    -1.5010    -0.1310 ca         1 8W7      -0.101300
     19 O2          -4.6090     1.9540    -2.2350 o          1 8W7      -0.501000
     20 C22          6.8980    -0.2530    -0.6300 c6         1 8W7       0.125800
     21 C23          8.2660    -0.7830    -0.1070 c6         1 8W7       0.153100
     22 O5           9.2340     0.2910    -0.0480 os         1 8W7      -0.449000
     23 C24          8.8050     1.3830     0.8010 c6         1 8W7       0.153100
     24 C25          7.4500     1.9610     0.2950 c6         1 8W7       0.125800
     25 C20          3.9690     0.4060    -0.2300 ca         1 8W7      -0.072300
     26 C19          3.4810    -0.0530     1.0080 ca         1 8W7      -0.102500
     27 C17          2.4430    -1.0000     1.0590 ca         1 8W7      -0.087500
     28 C18          3.4050    -0.0950    -1.4200 ca         1 8W7      -0.102500
     29 C16          2.3670    -1.0430    -1.3710 ca         1 8W7      -0.087500
     30 O4          -0.4960    -1.8230    -0.0530 os         1 8W7      -0.340100
     31 O3          -3.5330     5.0190     0.8530 o          1 8W7      -0.512000
     32 H1          -3.1610    -5.5990     0.1040 ha         1 8W7       0.119000
     33 H2          -0.9320    -4.5270     0.0130 ha         1 8W7       0.120000
     34 H3          -5.2420    -4.1990     0.1440 ha         1 8W7       0.139000
     35 H4          -4.0170     4.1360    -1.3630 hn         1 8W7       0.328500
     36 H6          -2.5140     0.2510     0.8680 h1         1 8W7       0.070200
     37 H7          -2.5750     0.2200    -0.9230 h1         1 8W7       0.070200
     38 H8          -6.2230     1.0740    -0.2990 h1         1 8W7       0.106700
     39 H9          -6.2250     2.4110     1.5410 hc         1 8W7       0.070700
     40 H10         -5.3130     1.0740     2.2160 hc         1 8W7       0.070700
     41 H11         -4.2290     3.3700     2.7170 hc         1 8W7       0.083200
     42 H12         -3.1970     2.2720     1.7980 hc         1 8W7       0.083200
     43 H13          0.8160    -3.1810    -0.9570 h1         1 8W7       0.043700
     44 H14          0.8700    -3.1480     0.8210 h1         1 8W7       0.043700
     45 H15          6.1740    -1.0810    -0.6110 h1         1 8W7       0.042950
     46 H16          7.0160     0.0470    -1.6820 h1         1 8W7       0.042950
     47 H17          8.1410    -1.2150     0.8970 h1         1 8W7       0.050700
     48 H18          8.6420    -1.5720    -0.7730 h1         1 8W7       0.050700
     49 H19          8.6970     1.0190     1.8330 h1         1 8W7       0.050700
     50 H20          9.5740     2.1680     0.7940 h1         1 8W7       0.050700
     51 H21          7.6150     2.4370    -0.6830 h1         1 8W7       0.042950
     52 H22          7.1240     2.7520     0.9870 h1         1 8W7       0.042950
     53 H23          4.8010     2.2850     0.3500 h1         1 8W7       0.042200
     54 H24          5.1920     1.8170    -1.3040 h1         1 8W7       0.042200
     55 H25          3.9120     0.3250     1.9330 ha         1 8W7       0.122500
     56 H26          2.0760    -1.3430     2.0230 ha         1 8W7       0.116000
     57 H27          3.7710     0.2480    -2.3850 ha         1 8W7       0.122500
     58 H28          1.9390    -1.4190    -2.2970 ha         1 8W7       0.116000
     59 O1          -6.3780    -1.4620     0.1260 o          1 8W7      -0.537000
     60 C21          5.0960     1.4340    -0.2780 c3         1 8W7       0.211100
@<TRIPOS>BOND
     1     1     2 ar  
     2     1     4 ar  
     3     1    32 1   
     4     2     3 ar  
     5     2    33 1   
     6     3     6 ar  
     7     3    30 1   
     8     4     5 ar  
     9     4    34 1   
    10     5     6 ar  
    11     5    11 1   
    12     6    10 1   
    13     7    10 1   
    14     7    11 1   
    15     7    12 1   
    16     8    15 1   
    17     8    16 1   
    18     8    35 1   
    19     9    20 1   
    20     9    24 1   
    21     9    60 1   
    22    10    36 1   
    23    10    37 1   
    24    11    59 2   
    25    12    13 1   
    26    12    16 1   
    27    12    38 1   
    28    13    14 1   
    29    13    39 1   
    30    13    40 1   
    31    14    15 1   
    32    14    41 1   
    33    14    42 1   
    34    15    31 2   
    35    16    19 2   
    36    17    18 1   
    37    17    30 1   
    38    17    43 1   
    39    17    44 1   
    40    18    27 ar  
    41    18    29 ar  
    42    20    21 1   
    43    20    45 1   
    44    20    46 1   
    45    21    22 1   
    46    21    47 1   
    47    21    48 1   
    48    22    23 1   
    49    23    24 1   
    50    23    49 1   
    51    23    50 1   
    52    24    51 1   
    53    24    52 1   
    54    25    26 ar  
    55    25    28 ar  
    56    25    60 1   
    57    26    27 ar  
    58    26    55 1   
    59    27    56 1   
    60    28    29 ar  
    61    28    57 1   
    62    29    58 1   
    63    53    60 1   
    64    54    60 1   
@<TRIPOS>SUBSTRUCTURE
     1 8W7         1 TEMP              0 ****  ****    0 ROOT
