@<TRIPOS>MOLECULE
8W8
   56    59     1     0     0
SMALL
abcg2


@<TRIPOS>ATOM
      1 C1           2.2650    -2.5140     1.4060 ca         1 8W8      -0.071000
      2 C2           1.9200    -1.1970     1.6410 ca         1 8W8      -0.115000
      3 C3          -2.6670    -0.4290     0.9140 ca         1 8W8      -0.112000
      4 C7          -1.4420    -0.1000     1.4460 ca         1 8W8      -0.076000
      5 C8          -6.1270    -2.8340    -0.6270 ca         1 8W8      -0.140500
      6 C9          -7.7400    -1.0380    -0.7360 ca         1 8W8      -0.140500
      7 C10         -1.2470     1.8880     0.0680 ca         1 8W8      -0.068000
      8 C11          2.3160    -0.7050    -0.6770 ca         1 8W8      -0.137000
      9 C12         -3.3490     2.1650    -1.4470 cc         1 8W8       0.359800
     10 C13         -2.4890     1.5630    -0.4900 ca         1 8W8      -0.217900
     11 C14          1.9430    -0.2850     0.5870 ca         1 8W8      -0.093300
     12 C15         -3.1780     0.4120    -0.0790 ca         1 8W8      -0.033200
     13 C16         -5.3860    -0.5480    -0.7470 ca         1 8W8       0.012800
     14 C19         -7.4320    -2.3830    -0.6550 ca         1 8W8       0.169000
     15 C20          4.9290     0.8800     1.0310 c          1 8W8       0.558100
     16 C21          2.4580     3.3900     1.7240 c3         1 8W8      -0.104100
     17 C22          3.4130    -3.6650    -2.4670 c3         1 8W8       0.148900
     18 C24          2.7560     1.9120     1.5300 c3         1 8W8       0.116700
     19 N26         -4.4350     1.4580    -1.6060 nd         1 8W8      -0.505100
     20 C4          -5.0980    -1.9070    -0.6860 ca         1 8W8      -0.086000
     21 C5          -6.7070    -0.1160    -0.7730 ca         1 8W8      -0.086000
     22 C6           2.6450    -2.9470     0.1390 ca         1 8W8      -0.186000
     23 C17         -0.7330     1.0450     1.0260 ca         1 8W8       0.074100
     24 C18          2.6780    -2.0340    -0.9100 ca         1 8W8       0.143100
     25 C23          1.6130     1.1680     0.8180 c3         1 8W8       0.205600
     26 C25          6.0440     0.7820    -0.0250 c3         1 8W8       0.214000
     27 N27         -4.3430     0.3950    -0.7930 na         1 8W8       0.168800
     28 N28          3.9640     1.7540     0.7410 ns         1 8W8      -0.489900
     29 O29          4.9900     0.1590     2.0030 o          1 8W8      -0.532100
     30 O30          3.0290    -2.3370    -2.1740 os         1 8W8      -0.341100
     31 O31          0.4620     1.3200     1.6320 os         1 8W8      -0.357100
     32 F32         -8.4300    -3.2770    -0.6080 f          1 8W8      -0.174000
     33 F33          5.7470    -0.1780    -0.9050 f          1 8W8      -0.103000
     34 F34          6.2200     1.9160    -0.7100 f          1 8W8      -0.103000
     35 F35          7.1990     0.4690     0.5490 f          1 8W8      -0.103000
     36 H1           2.2450    -3.2290     2.2180 ha         1 8W8       0.114000
     37 H2           1.6370    -0.8800     2.6370 ha         1 8W8       0.125000
     38 H3          -3.1970    -1.3040     1.2620 ha         1 8W8       0.129000
     39 H4          -1.0080    -0.7260     2.2150 ha         1 8W8       0.129000
     40 H6          -8.7710    -0.7110    -0.7570 ha         1 8W8       0.137500
     41 H7          -0.7170     2.7820    -0.2390 ha         1 8W8       0.125000
     42 H8           2.3340    -0.0020    -1.5020 ha         1 8W8       0.122000
     43 H9          -3.1980     3.0730    -2.0100 h4         1 8W8       0.053800
     44 H10          1.6020     3.5320     2.3800 hc         1 8W8       0.050033
     45 H11          3.3130     3.8910     2.1770 hc         1 8W8       0.050033
     46 H12          2.2400     3.8800     0.7730 hc         1 8W8       0.050033
     47 H13          3.6640    -3.6890    -3.5240 h1         1 8W8       0.041033
     48 H14          4.2890    -3.9740    -1.8910 h1         1 8W8       0.041033
     49 H15          2.6030    -4.3760    -2.2820 h1         1 8W8       0.041033
     50 H16          2.9320     1.4450     2.5010 h1         1 8W8       0.097700
     51 H17         -4.0740    -2.2550    -0.7030 ha         1 8W8       0.135500
     52 H18         -6.9320     0.9410    -0.8210 ha         1 8W8       0.135500
     53 H19          2.9080    -3.9860    -0.0050 ha         1 8W8       0.118000
     54 H20          1.4510     1.6540    -0.1550 h1         1 8W8       0.044700
     55 H21          4.0420     2.3280    -0.0860 hn         1 8W8       0.330500
     56 H5          -5.9120    -3.8930    -0.5790 ha         1 8W8       0.137500
@<TRIPOS>BOND
     1     1     2 ar  
     2     1    22 ar  
     3     1    36 1   
     4     2    11 ar  
     5     2    37 1   
     6     3     4 ar  
     7     3    12 ar  
     8     3    38 1   
     9     4    23 ar  
    10     4    39 1   
    11     5    14 ar  
    12     5    20 ar  
    13     5    56 1   
    14     6    14 ar  
    15     6    21 ar  
    16     6    40 1   
    17     7    10 ar  
    18     7    23 ar  
    19     7    41 1   
    20     8    11 ar  
    21     8    24 ar  
    22     8    42 1   
    23     9    10 1   
    24     9    19 2   
    25     9    43 1   
    26    10    12 ar  
    27    11    25 1   
    28    12    27 1   
    29    13    20 ar  
    30    13    21 ar  
    31    13    27 1   
    32    14    32 1   
    33    15    26 1   
    34    15    28 1   
    35    15    29 2   
    36    16    18 1   
    37    16    44 1   
    38    16    45 1   
    39    16    46 1   
    40    17    30 1   
    41    17    47 1   
    42    17    48 1   
    43    17    49 1   
    44    18    25 1   
    45    18    28 1   
    46    18    50 1   
    47    19    27 1   
    48    20    51 1   
    49    21    52 1   
    50    22    24 ar  
    51    22    53 1   
    52    23    31 1   
    53    24    30 1   
    54    25    31 1   
    55    25    54 1   
    56    26    33 1   
    57    26    34 1   
    58    26    35 1   
    59    28    55 1   
@<TRIPOS>SUBSTRUCTURE
     1 8W8         1 TEMP              0 ****  ****    0 ROOT
