@<TRIPOS>MOLECULE
8W8
   56    59     1     0     0
SMALL
No Charge or Current Charge


@<TRIPOS>ATOM
      1 C1           2.4730    -2.5640     0.5740 ca         1 8W8      -0.071000
      2 C2           2.0180    -1.3350     1.0790 ca         1 8W8      -0.115000
      3 C3          -3.1870    -0.0470     1.1870 ca         1 8W8      -0.112000
      4 C7          -1.9500     0.3440     1.7450 ca         1 8W8      -0.076000
      5 C8          -7.0290    -2.3900     0.6020 ca         1 8W8      -0.140500
      6 C9          -7.9720    -0.4210    -0.4770 ca         1 8W8      -0.140500
      7 C10         -0.9610     0.5360    -0.4960 ca         1 8W8      -0.068000
      8 C11          2.5730    -0.2640    -1.0300 ca         1 8W8      -0.137000
      9 C12         -2.6750    -0.0480    -2.3630 cc         1 8W8       0.359800
     10 C13         -2.2040     0.1420    -1.0100 ca         1 8W8      -0.217900
     11 C14          2.0610    -0.1750     0.2810 ca         1 8W8      -0.093300
     12 C15         -3.2630    -0.1400    -0.2090 ca         1 8W8      -0.033200
     13 C16         -5.5720    -0.8490    -0.6100 ca         1 8W8       0.012800
     14 C19         -8.1360    -1.5880     0.2850 ca         1 8W8       0.169000
     15 C20          4.9750     0.9210     1.5550 c          1 8W8       0.558100
     16 C21          2.2230     3.2300     2.2650 c3         1 8W8      -0.104100
     17 C22          4.0280    -2.7030    -3.4460 c3         1 8W8       0.148900
     18 C24          2.6140     1.8070     1.8150 c3         1 8W8       0.116700
     19 N26         -3.9630    -0.4280    -2.4010 nd         1 8W8      -0.505100
     20 C4          -5.7460    -2.0220     0.1540 ca         1 8W8      -0.086000
     21 C5          -6.6910    -0.0510    -0.9250 ca         1 8W8      -0.086000
     22 C6           2.9800    -2.6450    -0.7340 ca         1 8W8      -0.186000
     23 C17         -0.8350     0.6310     0.9160 ca         1 8W8       0.074100
     24 C18          3.0330    -1.4890    -1.5420 ca         1 8W8       0.143100
     25 C23          1.5880     1.1780     0.8280 c3         1 8W8       0.205600
     26 C25          6.2780     1.0740     0.7220 c3         1 8W8       0.214000
     27 N27         -4.3020    -0.4810    -1.0510 na         1 8W8       0.168800
     28 N28          3.9710     1.8250     1.2450 ns         1 8W8      -0.489900
     29 O29          4.8270     0.0690     2.4240 o          1 8W8      -0.532100
     30 O30          3.5250    -1.5040    -2.8310 os         1 8W8      -0.341100
     31 O31          0.3410     1.0070     1.5370 os         1 8W8      -0.357100
     32 F32         -9.3670    -1.9420     0.7150 f          1 8W8      -0.174000
     33 F33          6.0430     0.8820    -0.5980 f          1 8W8      -0.103000
     34 F34          6.8120     2.3110     0.8630 f          1 8W8      -0.103000
     35 F35          7.2290     0.1820     1.0940 f          1 8W8      -0.103000
     36 H1           2.4350    -3.4540     1.1980 ha         1 8W8       0.114000
     37 H2           1.6330    -1.2850     2.0960 ha         1 8W8       0.125000
     38 H3          -4.0450    -0.2660     1.8190 ha         1 8W8       0.129000
     39 H4          -1.8480     0.4250     2.8240 ha         1 8W8       0.129000
     40 H6          -8.8360     0.1940    -0.7190 ha         1 8W8       0.137500
     41 H7          -0.1400     0.7590    -1.1720 ha         1 8W8       0.125000
     42 H8           2.6230     0.6220    -1.6570 ha         1 8W8       0.122000
     43 H9          -2.1630     0.0690    -3.3090 h4         1 8W8       0.053800
     44 H10          1.2450     3.2280     2.7610 hc         1 8W8       0.050033
     45 H11          2.9600     3.6240     2.9760 hc         1 8W8       0.050033
     46 H12          2.1730     3.9120     1.4080 hc         1 8W8       0.050033
     47 H13          4.3700    -2.4920    -4.4670 h1         1 8W8       0.041033
     48 H14          4.8780    -3.1050    -2.8790 h1         1 8W8       0.041033
     49 H15          3.2460    -3.4710    -3.5010 h1         1 8W8       0.041033
     50 H16          2.6250     1.1740     2.7140 h1         1 8W8       0.097700
     51 H17         -4.8880    -2.6450     0.3990 ha         1 8W8       0.135500
     52 H18         -6.5640     0.8540    -1.5160 ha         1 8W8       0.135500
     53 H19          3.3280    -3.6070    -1.1000 ha         1 8W8       0.118000
     54 H20          1.4540     1.8800    -0.0050 h1         1 8W8       0.044700
     55 H21          4.1800     2.5050     0.5220 hn         1 8W8       0.330500
     56 H5          -7.1640    -3.2930     1.1920 ha         1 8W8       0.137500
@<TRIPOS>BOND
     1     1     2 ar  
     2     1    22 ar  
     3     1    36 1   
     4     2    11 ar  
     5     2    37 1   
     6     3     4 ar  
     7     3    12 ar  
     8     3    38 1   
     9     4    23 ar  
    10     4    39 1   
    11     5    14 ar  
    12     5    20 ar  
    13     5    56 1   
    14     6    14 ar  
    15     6    21 ar  
    16     6    40 1   
    17     7    10 ar  
    18     7    23 ar  
    19     7    41 1   
    20     8    11 ar  
    21     8    24 ar  
    22     8    42 1   
    23     9    10 1   
    24     9    19 2   
    25     9    43 1   
    26    10    12 ar  
    27    11    25 1   
    28    12    27 1   
    29    13    20 ar  
    30    13    21 ar  
    31    13    27 1   
    32    14    32 1   
    33    15    26 1   
    34    15    28 1   
    35    15    29 2   
    36    16    18 1   
    37    16    44 1   
    38    16    45 1   
    39    16    46 1   
    40    17    30 1   
    41    17    47 1   
    42    17    48 1   
    43    17    49 1   
    44    18    25 1   
    45    18    28 1   
    46    18    50 1   
    47    19    27 1   
    48    20    51 1   
    49    21    52 1   
    50    22    24 ar  
    51    22    53 1   
    52    23    31 1   
    53    24    30 1   
    54    25    31 1   
    55    25    54 1   
    56    26    33 1   
    57    26    34 1   
    58    26    35 1   
    59    28    55 1   
@<TRIPOS>SUBSTRUCTURE
     1 8W8         1 TEMP              0 ****  ****    0 ROOT
