@<TRIPOS>MOLECULE
8W9
   27    28     1     0     0
SMALL
No Charge or Current Charge


@<TRIPOS>ATOM
      1 C4          -0.0970    -0.4600    -0.0350 ca         1 8W9      -0.001400
      2 C5          -0.4360     0.8860    -0.1000 ca         1 8W9       0.004600
      3 C6           0.5340     1.8860     0.0390 ca         1 8W9      -0.112000
      4 C11          2.2390     0.1200     0.2080 ca         1 8W9      -0.089300
      5 C8           1.2280    -0.8680     0.1720 ca         1 8W9      -0.083000
      6 C12          1.8850     1.4930     0.1410 ca         1 8W9      -0.111000
      7 N2          -1.3050    -1.1870     0.1610 n          1 8W9      -0.292000
      8 N3          -1.8470     0.9710     0.0580 n          1 8W9      -0.292000
      9 C1          -2.4000    -0.3110     0.1890 c          1 8W9       0.596000
     10 O7          -3.5850    -0.6050     0.2690 o          1 8W9      -0.569000
     11 C15          3.6950    -0.2880     0.3920 c3         1 8W9       0.200100
     12 N14          4.3140    -0.6650    -0.8910 n8         1 8W9      -1.001200
     13 H1           0.2550     2.9370     0.0790 ha         1 8W9       0.122000
     14 H2           1.4710    -1.9190     0.3090 ha         1 8W9       0.140000
     15 H3          -1.3870    -3.1010     1.0440 h1         1 8W9       0.051033
     16 H4          -2.3860    -2.9100    -0.4270 h1         1 8W9       0.051033
     17 H5          -0.6130    -3.0470    -0.5680 h1         1 8W9       0.051033
     18 H6          -2.0890     2.8740    -0.8330 h1         1 8W9       0.050367
     19 H7          -3.5900     1.9220    -0.6800 h1         1 8W9       0.050367
     20 H8          -2.8620     2.6790     0.7680 h1         1 8W9       0.050367
     21 H9           2.6570     2.2560     0.2190 ha         1 8W9       0.111000
     22 H10          4.2630     0.5460     0.8290 h1         1 8W9       0.034700
     23 H11          3.7580    -1.1410     1.0820 h1         1 8W9       0.034700
     24 H12          4.3030     0.1530    -1.5110 hn         1 8W9       0.397000
     25 H13          5.3140    -0.8410    -0.7370 hn         1 8W9       0.397000
     26 C9          -1.4310    -2.6490     0.0450 c3         1 8W9       0.105300
     27 C10         -2.6460     2.1840    -0.1870 c3         1 8W9       0.105300
@<TRIPOS>BOND
     1     1     2 ar  
     2     1     5 ar  
     3     1     7 1   
     4     2     3 ar  
     5     2     8 1   
     6     3     6 ar  
     7     3    13 1   
     8     4     5 ar  
     9     4     6 ar  
    10     4    11 1   
    11     5    14 1   
    12     6    21 1   
    13     7     9 1   
    14     7    26 1   
    15     8     9 1   
    16     8    27 1   
    17     9    10 2   
    18    11    12 1   
    19    11    22 1   
    20    11    23 1   
    21    12    24 1   
    22    12    25 1   
    23    15    26 1   
    24    16    26 1   
    25    17    26 1   
    26    18    27 1   
    27    19    27 1   
    28    20    27 1   
@<TRIPOS>SUBSTRUCTURE
     1 8W9         1 TEMP              0 ****  ****    0 ROOT
