@<TRIPOS>MOLECULE
8W9
   27    28     1     0     0
SMALL
abcg2


@<TRIPOS>ATOM
      1 C4          -0.0620    -0.3870     0.0430 ca         1 8W9      -0.001400
      2 C5          -0.4640     0.9510     0.0780 ca         1 8W9       0.004600
      3 C6           0.4640     1.9670     0.1780 ca         1 8W9      -0.112000
      4 C11          2.2190     0.2710     0.2180 ca         1 8W9      -0.089300
      5 C8           1.2670    -0.7480     0.1100 ca         1 8W9      -0.083000
      6 C12          1.8090     1.6020     0.2440 ca         1 8W9      -0.111000
      7 N2          -1.2080    -1.1450    -0.0710 n          1 8W9      -0.292000
      8 N3          -1.8390     0.9620    -0.0110 n          1 8W9      -0.292000
      9 C1          -2.3120    -0.3260    -0.0990 c          1 8W9       0.596000
     10 O7          -3.4770    -0.6730    -0.1870 o          1 8W9      -0.569000
     11 C15          3.6830    -0.0750     0.3370 c3         1 8W9       0.200100
     12 N14          4.0460    -1.1990    -0.5100 n8         1 8W9      -1.001200
     13 H1           0.1710     3.0090     0.1970 ha         1 8W9       0.122000
     14 H2           1.5790    -1.7840     0.0710 ha         1 8W9       0.140000
     15 H3          -0.9260    -3.0200     0.8220 h1         1 8W9       0.051033
     16 H4          -2.2700    -2.9020    -0.3220 h1         1 8W9       0.051033
     17 H5          -0.6100    -2.9550    -0.9210 h1         1 8W9       0.051033
     18 H6          -2.4520     2.7640    -0.8820 h1         1 8W9       0.050367
     19 H7          -3.7090     1.8430    -0.0510 h1         1 8W9       0.050367
     20 H8          -2.5030     2.7280     0.8890 h1         1 8W9       0.050367
     21 H9           2.5570     2.3820     0.3140 ha         1 8W9       0.111000
     22 H10          4.2730     0.8320     0.1500 h1         1 8W9       0.034700
     23 H11          3.8950    -0.3590     1.3710 h1         1 8W9       0.034700
     24 H12          4.0280    -0.9110    -1.4810 hn         1 8W9       0.397000
     25 H13          5.0000    -1.4710    -0.3160 hn         1 8W9       0.397000
     26 C9          -1.2520    -2.5830    -0.1230 c3         1 8W9       0.105300
     27 C10         -2.6650     2.1400    -0.0140 c3         1 8W9       0.105300
@<TRIPOS>BOND
     1     1     2 ar  
     2     1     5 ar  
     3     1     7 1   
     4     2     3 ar  
     5     2     8 1   
     6     3     6 ar  
     7     3    13 1   
     8     4     5 ar  
     9     4     6 ar  
    10     4    11 1   
    11     5    14 1   
    12     6    21 1   
    13     7     9 1   
    14     7    26 1   
    15     8     9 1   
    16     8    27 1   
    17     9    10 2   
    18    11    12 1   
    19    11    22 1   
    20    11    23 1   
    21    12    24 1   
    22    12    25 1   
    23    15    26 1   
    24    16    26 1   
    25    17    26 1   
    26    18    27 1   
    27    19    27 1   
    28    20    27 1   
@<TRIPOS>SUBSTRUCTURE
     1 8W9         1 TEMP              0 ****  ****    0 ROOT
