@<TRIPOS>MOLECULE
8WA
   46    49     1     0     0
SMALL
abcg2


@<TRIPOS>ATOM
      1 CL2          7.0750    -2.3210    -1.8560 cl         1 8WA      -0.176000
      2 C16          6.3740    -1.0010    -0.9570 ca         1 8WA       0.443000
      3 C15          7.1780    -0.3360    -0.0400 ca         1 8WA      -0.162000
      4 C14          6.6260     0.7210     0.6840 ca         1 8WA      -0.058000
      5 N4           5.1140    -0.7330    -1.2220 nb         1 8WA      -0.621000
      6 C17          4.5860     0.2710    -0.5370 ca         1 8WA       0.524000
      7 C13          5.3100     1.0150     0.4190 ca         1 8WA      -0.147200
      8 N3           4.4110     1.9380     0.8880 na         1 8WA      -0.344600
      9 N5           3.3100     0.7240    -0.6380 nc         1 8WA      -0.712700
     10 C12          3.2370     1.7250     0.2220 cd         1 8WA       0.676700
     11 N            2.1520     2.4860     0.4250 nh         1 8WA      -0.744600
     12 C            2.1390     3.4650     1.4920 c3         1 8WA       0.203100
     13 C1           0.8890     2.0860    -0.1650 c3         1 8WA       0.231800
     14 C2           0.1390     1.0630     0.6810 c3         1 8WA       0.136800
     15 N1          -1.1030     0.7140     0.0230 n7         1 8WA      -0.872400
     16 C3          -2.0190    -0.0640     0.8330 c6         1 8WA       0.235800
     17 C11         -3.3830    -0.1350     0.1690 ca         1 8WA      -0.151300
     18 C6          -4.2120    -1.2550     0.3890 ca         1 8WA       0.344000
     19 N2          -3.7950    -2.3160     1.1360 nu         1 8WA      -0.952200
     20 C5          -2.5980    -2.2290     1.9400 c6         1 8WA       0.223800
     21 C4          -1.5280    -1.4700     1.1820 c6         1 8WA      -0.126400
     22 C10         -3.8210     0.9080    -0.6320 ca         1 8WA      -0.035000
     23 C9          -5.0760     0.8760    -1.2160 ca         1 8WA       0.065000
     24 CL1         -5.6030     2.1990    -2.2100 cl         1 8WA      -0.204000
     25 C8          -5.9170    -0.2040    -1.0170 ca         1 8WA      -0.044000
     26 C7          -5.4740    -1.2480    -0.2260 ca         1 8WA       0.036000
     27 CL          -6.5280    -2.6100     0.0070 cl         1 8WA      -0.211000
     28 H1           8.2060    -0.6300     0.1100 ha         1 8WA       0.138000
     29 H2           7.2150     1.2670     1.4090 ha         1 8WA       0.123000
     30 H3           4.5900     2.6330     1.5950 hn         1 8WA       0.359000
     31 H5           2.9970     4.1350     1.4210 h1         1 8WA       0.043033
     32 H6           1.2470     4.0780     1.3930 h1         1 8WA       0.043033
     33 H7           2.1310     3.0100     2.4860 h1         1 8WA       0.043033
     34 H8           0.2770     2.9800    -0.2880 h1         1 8WA       0.076200
     35 H9           1.0770     1.6840    -1.1610 h1         1 8WA       0.076200
     36 H10          0.7970     0.2040     0.8730 h1         1 8WA       0.037700
     37 H11         -0.1000     1.5010     1.6550 h1         1 8WA       0.037700
     38 H12         -0.9050     0.2140    -0.8370 hn         1 8WA       0.427000
     39 H14         -2.1400     0.4860     1.7760 h1         1 8WA       0.060700
     40 H15         -4.5070    -2.9440     1.4710 hn         1 8WA       0.491000
     41 H16         -2.7930    -1.7360     2.9010 h1         1 8WA       0.040700
     42 H17         -2.2620    -3.2420     2.1620 h1         1 8WA       0.040700
     43 H18         -1.2690    -2.0080     0.2650 hc         1 8WA       0.060200
     44 H19         -0.6260    -1.4140     1.7930 hc         1 8WA       0.060200
     45 H20         -3.1600     1.7490    -0.7920 ha         1 8WA       0.146000
     46 H21         -6.8970    -0.2420    -1.4700 ha         1 8WA       0.141000
@<TRIPOS>BOND
     1     1     2 1   
     2     2     3 ar  
     3     2     5 ar  
     4     3     4 ar  
     5     3    28 1   
     6     4     7 ar  
     7     4    29 1   
     8     5     6 ar  
     9     6     7 ar  
    10     6     9 1   
    11     7     8 1   
    12     8    10 1   
    13     8    30 1   
    14     9    10 2   
    15    10    11 1   
    16    11    12 1   
    17    11    13 1   
    18    12    31 1   
    19    12    32 1   
    20    12    33 1   
    21    13    14 1   
    22    13    34 1   
    23    13    35 1   
    24    14    15 1   
    25    14    36 1   
    26    14    37 1   
    27    15    16 1   
    28    15    38 1   
    29    16    17 1   
    30    16    21 1   
    31    16    39 1   
    32    17    18 ar  
    33    17    22 ar  
    34    18    19 1   
    35    18    26 ar  
    36    19    20 1   
    37    19    40 1   
    38    20    21 1   
    39    20    41 1   
    40    20    42 1   
    41    21    43 1   
    42    21    44 1   
    43    22    23 ar  
    44    22    45 1   
    45    23    24 1   
    46    23    25 ar  
    47    25    26 ar  
    48    25    46 1   
    49    26    27 1   
@<TRIPOS>SUBSTRUCTURE
     1 8WA         1 TEMP              0 ****  ****    0 ROOT
