@<TRIPOS>MOLECULE
8WA
   46    49     1     0     0
SMALL
No Charge or Current Charge


@<TRIPOS>ATOM
      1 Cl2          7.2560    -2.6220    -1.3920 cl         1 8WA      -0.176000
      2 C16          6.5620    -1.1720    -0.6830 ca         1 8WA       0.443000
      3 C15          7.3730    -0.2900     0.0630 ca         1 8WA      -0.162000
      4 C14          6.7930     0.8620     0.6200 ca         1 8WA      -0.058000
      5 N4           5.2390    -0.9780    -0.9000 nb         1 8WA      -0.621000
      6 C17          4.6940     0.1240    -0.3650 ca         1 8WA       0.524000
      7 C13          5.4260     1.0290     0.3740 ca         1 8WA      -0.147200
      8 N3           4.6050     2.0420     0.7840 na         1 8WA      -0.344600
      9 N5           3.3770     0.5250    -0.4560 nc         1 8WA      -0.712700
     10 C12          3.3860     1.6620     0.2420 cd         1 8WA       0.676700
     11 N            2.2410     2.4300     0.4250 nh         1 8WA      -0.744600
     12 C            2.2480     3.6560     1.2540 c3         1 8WA       0.203100
     13 C1           0.9350     2.0310    -0.1660 c3         1 8WA       0.231800
     14 C2           0.1200     1.0470     0.7160 c3         1 8WA       0.136800
     15 N1          -1.1890     0.7010     0.1040 n7         1 8WA      -0.872400
     16 C3          -2.1410    -0.0930     0.9110 c6         1 8WA       0.235800
     17 C11         -3.5250    -0.1140     0.2400 ca         1 8WA      -0.151300
     18 C6          -4.3130    -1.2880     0.2600 ca         1 8WA       0.344000
     19 N2          -3.8120    -2.4430     0.8760 nu         1 8WA      -0.952200
     20 C5          -2.6680    -2.4170     1.7920 c6         1 8WA       0.223800
     21 C4          -1.5890    -1.5190     1.1650 c6         1 8WA      -0.126400
     22 C10         -4.0470     1.0570    -0.3540 ca         1 8WA      -0.035000
     23 C9          -5.3210     1.0480    -0.9450 ca         1 8WA       0.065000
     24 Cl1         -5.9520     2.5130    -1.6890 cl         1 8WA      -0.204000
     25 C8          -6.0940    -0.1220    -0.9410 ca         1 8WA      -0.044000
     26 C7          -5.5960    -1.2880    -0.3380 ca         1 8WA       0.036000
     27 Cl          -6.6030    -2.7430    -0.3360 cl         1 8WA      -0.211000
     28 H1           8.4290    -0.5050     0.2010 ha         1 8WA       0.138000
     29 H2           7.3710     1.5760     1.2030 ha         1 8WA       0.123000
     30 H3           4.8060     2.8650     1.3330 hn         1 8WA       0.359000
     31 H5           2.8870     4.4230     0.7970 h1         1 8WA       0.043033
     32 H6           1.2370     4.0720     1.3600 h1         1 8WA       0.043033
     33 H7           2.6280     3.4360     2.2610 h1         1 8WA       0.043033
     34 H8           0.3180     2.9220    -0.3430 h1         1 8WA       0.076200
     35 H9           1.0900     1.5700    -1.1510 h1         1 8WA       0.076200
     36 H10          0.7210     0.1430     0.8770 h1         1 8WA       0.037700
     37 H11         -0.0370     1.5170     1.6970 h1         1 8WA       0.037700
     38 H12         -1.0240     0.2020    -0.7780 hn         1 8WA       0.427000
     39 H14         -2.2690     0.4010     1.8880 h1         1 8WA       0.060700
     40 H15         -4.4510    -3.2420     0.9050 hn         1 8WA       0.491000
     41 H16         -2.9660    -2.0010     2.7660 h1         1 8WA       0.040700
     42 H17         -2.2740    -3.4300     1.9620 h1         1 8WA       0.040700
     43 H18         -1.2470    -1.9670     0.2220 hc         1 8WA       0.060200
     44 H19         -0.7180    -1.4790     1.8320 hc         1 8WA       0.060200
     45 H20         -3.4660     1.9760    -0.3580 ha         1 8WA       0.146000
     46 H21         -7.0800    -0.1230    -1.3980 ha         1 8WA       0.141000
@<TRIPOS>BOND
     1     1     2 1   
     2     2     3 ar  
     3     2     5 ar  
     4     3     4 ar  
     5     3    28 1   
     6     4     7 ar  
     7     4    29 1   
     8     5     6 ar  
     9     6     7 ar  
    10     6     9 1   
    11     7     8 1   
    12     8    10 1   
    13     8    30 1   
    14     9    10 2   
    15    10    11 1   
    16    11    12 1   
    17    11    13 1   
    18    12    31 1   
    19    12    32 1   
    20    12    33 1   
    21    13    14 1   
    22    13    34 1   
    23    13    35 1   
    24    14    15 1   
    25    14    36 1   
    26    14    37 1   
    27    15    16 1   
    28    15    38 1   
    29    16    17 1   
    30    16    21 1   
    31    16    39 1   
    32    17    18 ar  
    33    17    22 ar  
    34    18    19 1   
    35    18    26 ar  
    36    19    20 1   
    37    19    40 1   
    38    20    21 1   
    39    20    41 1   
    40    20    42 1   
    41    21    43 1   
    42    21    44 1   
    43    22    23 ar  
    44    22    45 1   
    45    23    24 1   
    46    23    25 ar  
    47    25    26 ar  
    48    25    46 1   
    49    26    27 1   
@<TRIPOS>SUBSTRUCTURE
     1 8WA         1 TEMP              0 ****  ****    0 ROOT
