@<TRIPOS>MOLECULE
8WB
   40    41     1     0     0
SMALL
abcg2


@<TRIPOS>ATOM
      1 CAV         -1.2960    -2.9600    -0.4520 c3         1 8WB       0.157900
      2 OAU         -0.9590    -1.8250     0.3390 os         1 8WB      -0.360100
      3 CAD         -1.4950    -0.6260     0.0130 ca         1 8WB       0.150100
      4 CAC         -2.8720    -0.4320    -0.0350 ca         1 8WB       0.015100
      5 OAS         -3.7290    -1.4620     0.1870 os         1 8WB      -0.344100
      6 CAT         -4.0120    -1.6980     1.5610 c3         1 8WB       0.145900
      7 CAB         -3.3960     0.8410    -0.3050 ca         1 8WB       0.150100
      8 OAQ         -4.7350     0.9220    -0.3320 os         1 8WB      -0.321100
      9 CAR         -5.3260     2.1840    -0.5770 c3         1 8WB       0.143900
     10 CAA         -2.5300     1.9080    -0.5130 ca         1 8WB      -0.211000
     11 CAF         -1.1590     1.6990    -0.4530 ca         1 8WB      -0.051000
     12 CAE         -0.6160     0.4450    -0.2070 ca         1 8WB      -0.105800
     13 CAG          0.8500     0.2480    -0.1550 cc         1 8WB      -0.035200
     14 CAH          1.5840     1.0670     0.6540 cd         1 8WB      -0.100000
     15 CAI          2.9800     1.1420     0.8710 cd         1 8WB      -0.285000
     16 CAJ          4.0120     0.3780     0.4050 cc         1 8WB       0.079900
     17 OAO          5.2790     0.6040     0.7410 os         1 8WB      -0.308100
     18 CAP          5.6120     1.6920     1.5850 c3         1 8WB       0.140900
     19 CAK          3.9400    -0.7900    -0.4980 c          1 8WB       0.572500
     20 OAN          4.9690    -1.4140    -0.7380 o          1 8WB      -0.527100
     21 CAL          2.6990    -1.1720    -1.1330 cd         1 8WB      -0.302200
     22 CAM          1.4170    -0.7510    -0.9950 cc         1 8WB      -0.069000
     23 H1          -0.4260    -3.6150    -0.4480 h1         1 8WB       0.042033
     24 H2          -2.1470    -3.5040    -0.0430 h1         1 8WB       0.042033
     25 H3          -1.5170    -2.6810    -1.4840 h1         1 8WB       0.042033
     26 H4          -4.4040    -0.8040     2.0500 h1         1 8WB       0.037700
     27 H5          -4.7670    -2.4810     1.6030 h1         1 8WB       0.037700
     28 H6          -3.1260    -2.0370     2.1040 h1         1 8WB       0.037700
     29 H7          -5.0340     2.5910    -1.5480 h1         1 8WB       0.043033
     30 H8          -6.4010     2.0260    -0.5720 h1         1 8WB       0.043033
     31 H9          -5.0740     2.9100     0.2000 h1         1 8WB       0.043033
     32 H10         -2.9010     2.9010    -0.7260 ha         1 8WB       0.123000
     33 H11         -0.4960     2.5360    -0.6320 ha         1 8WB       0.118000
     34 H12          1.0240     1.7920     1.2330 ha         1 8WB       0.174000
     35 H13          3.2460     1.9460     1.5460 ha         1 8WB       0.176000
     36 H14          5.3020     2.6470     1.1540 h1         1 8WB       0.045367
     37 H15          5.1660     1.5850     2.5770 h1         1 8WB       0.045367
     38 H16          6.6940     1.6800     1.6810 h1         1 8WB       0.045367
     39 H17          2.8460    -1.9660    -1.8570 ha         1 8WB       0.193000
     40 H18          0.7160    -1.2530    -1.6530 ha         1 8WB       0.175000
@<TRIPOS>BOND
     1     1     2 1   
     2     1    23 1   
     3     1    24 1   
     4     1    25 1   
     5     2     3 1   
     6     3     4 ar  
     7     3    12 ar  
     8     4     5 1   
     9     4     7 ar  
    10     5     6 1   
    11     6    26 1   
    12     6    27 1   
    13     6    28 1   
    14     7     8 1   
    15     7    10 ar  
    16     8     9 1   
    17     9    29 1   
    18     9    30 1   
    19     9    31 1   
    20    10    11 ar  
    21    10    32 1   
    22    11    12 ar  
    23    11    33 1   
    24    12    13 1   
    25    13    14 2   
    26    13    22 1   
    27    14    15 1   
    28    14    34 1   
    29    15    16 2   
    30    15    35 1   
    31    16    17 1   
    32    16    19 1   
    33    17    18 1   
    34    18    36 1   
    35    18    37 1   
    36    18    38 1   
    37    19    20 2   
    38    19    21 1   
    39    21    22 2   
    40    21    39 1   
    41    22    40 1   
@<TRIPOS>SUBSTRUCTURE
     1 8WB         1 TEMP              0 ****  ****    0 ROOT
