@<TRIPOS>MOLECULE
8WB
   40    41     1     0     0
SMALL
No Charge or Current Charge


@<TRIPOS>ATOM
      1 CAV         -1.4720    -3.2510    -0.0160 c3         1 8WB       0.157900
      2 OAU         -0.7720    -1.9940    -0.0430 os         1 8WB      -0.360100
      3 CAD         -1.3640    -0.7390    -0.1740 ca         1 8WB       0.150100
      4 CAC         -2.7800    -0.5200    -0.1400 ca         1 8WB       0.015100
      5 OAS         -3.6670    -1.5780    -0.0330 os         1 8WB      -0.344100
      6 CAT         -4.5170    -1.7060     1.1230 c3         1 8WB       0.145900
      7 CAB         -3.2930     0.7990    -0.2360 ca         1 8WB       0.150100
      8 OAQ         -4.6650     0.9900    -0.2760 os         1 8WB      -0.321100
      9 CAR         -5.2690     2.2910    -0.3800 c3         1 8WB       0.143900
     10 CAA         -2.4060     1.8880    -0.3190 ca         1 8WB      -0.211000
     11 CAF         -1.0240     1.6760    -0.3260 ca         1 8WB      -0.051000
     12 CAE         -0.4810     0.3750    -0.2660 ca         1 8WB      -0.105800
     13 CAG          0.9940     0.2160    -0.3350 cc         1 8WB      -0.035200
     14 CAH          1.6610     1.0490     0.5580 cd         1 8WB      -0.100000
     15 CAI          3.0710     1.1810     0.8260 cd         1 8WB      -0.285000
     16 CAJ          4.1310     0.4760     0.2530 cc         1 8WB       0.079900
     17 OAO          5.3980     0.8450     0.7060 os         1 8WB      -0.308100
     18 CAP          5.6900     1.8730     1.6770 c3         1 8WB       0.140900
     19 CAK          4.1140    -0.6210    -0.7600 c          1 8WB       0.572500
     20 OAN          5.1680    -1.1280    -1.1360 o          1 8WB      -0.527100
     21 CAL          2.8800    -1.1520    -1.3520 cd         1 8WB      -0.302200
     22 CAM          1.5640    -0.8040    -1.1720 cc         1 8WB      -0.069000
     23 H1          -0.7540    -4.0800     0.0210 h1         1 8WB       0.042033
     24 H2          -2.1090    -3.3280     0.8740 h1         1 8WB       0.042033
     25 H3          -2.0860    -3.3800    -0.9160 h1         1 8WB       0.042033
     26 H4          -5.2310    -0.8770     1.1990 h1         1 8WB       0.037700
     27 H5          -5.0920    -2.6390     1.0680 h1         1 8WB       0.037700
     28 H6          -3.9170    -1.7300     2.0410 h1         1 8WB       0.037700
     29 H7          -4.9600     2.7920    -1.3060 h1         1 8WB       0.043033
     30 H8          -6.3620     2.2020    -0.3900 h1         1 8WB       0.043033
     31 H9          -4.9880     2.9210     0.4740 h1         1 8WB       0.043033
     32 H10         -2.7680     2.9090    -0.3940 ha         1 8WB       0.123000
     33 H11         -0.3690     2.5400    -0.4260 ha         1 8WB       0.118000
     34 H12          1.0440     1.7010     1.1710 ha         1 8WB       0.174000
     35 H13          3.2700     1.9340     1.5770 ha         1 8WB       0.176000
     36 H14          5.3310     2.8520     1.3340 h1         1 8WB       0.045367
     37 H15          5.2310     1.6400     2.6460 h1         1 8WB       0.045367
     38 H16          6.7730     1.9490     1.8300 h1         1 8WB       0.045367
     39 H17          3.0970    -1.9480    -2.0560 ha         1 8WB       0.193000
     40 H18          0.8480    -1.3520    -1.7780 ha         1 8WB       0.175000
@<TRIPOS>BOND
     1     1     2 1   
     2     1    23 1   
     3     1    24 1   
     4     1    25 1   
     5     2     3 1   
     6     3     4 ar  
     7     3    12 ar  
     8     4     5 1   
     9     4     7 ar  
    10     5     6 1   
    11     6    26 1   
    12     6    27 1   
    13     6    28 1   
    14     7     8 1   
    15     7    10 ar  
    16     8     9 1   
    17     9    29 1   
    18     9    30 1   
    19     9    31 1   
    20    10    11 ar  
    21    10    32 1   
    22    11    12 ar  
    23    11    33 1   
    24    12    13 1   
    25    13    14 2   
    26    13    22 1   
    27    14    15 1   
    28    14    34 1   
    29    15    16 2   
    30    15    35 1   
    31    16    17 1   
    32    16    19 1   
    33    17    18 1   
    34    18    36 1   
    35    18    37 1   
    36    18    38 1   
    37    19    20 2   
    38    19    21 1   
    39    21    22 2   
    40    21    39 1   
    41    22    40 1   
@<TRIPOS>SUBSTRUCTURE
     1 8WB         1 TEMP              0 ****  ****    0 ROOT
