@<TRIPOS>MOLECULE
8WC
   54    57     1     0     0
SMALL
abcg2


@<TRIPOS>ATOM
      1 C4           3.8390     3.5250    -0.4380 ca         1 8WC      -0.118500
      2 C5           2.5840     2.9580    -0.5760 ca         1 8WC      -0.080000
      3 C6           2.2250     1.8280     0.1590 cp         1 8WC      -0.147500
      4 N1          -7.9520    -0.7400     0.6630 n7         1 8WC      -0.863400
      5 C7           0.8710     1.2510     0.0050 cp         1 8WC       0.385500
      6 C8           0.6290    -0.1300    -0.1030 cq         1 8WC      -0.048000
      7 N2          -0.1290     2.1220    -0.0170 nb         1 8WC      -0.641000
      8 C9           1.7060    -1.1410    -0.1690 cq         1 8WC      -0.013000
      9 C10          1.6840    -2.2370     0.6910 ca         1 8WC      -0.099000
     10 C11          2.6680    -3.2080     0.6260 ca         1 8WC      -0.074000
     11 C12          3.6870    -3.0880    -0.3170 ca         1 8WC      -0.016000
     12 C13          4.7060    -4.0840    -0.3920 cg         1 8WC       0.323000
     13 C14          3.7140    -2.0020    -1.1920 ca         1 8WC      -0.074000
     14 C15          2.7290    -1.0370    -1.1120 ca         1 8WC      -0.099000
     15 N            5.5300    -4.8880    -0.4530 n1         1 8WC      -0.452000
     16 C1           4.7770     2.9940     0.4490 ca         1 8WC      -0.065300
     17 C16         -0.6860    -0.5580    -0.1870 ca         1 8WC      -0.110000
     18 C17         -1.7260     0.3650    -0.1880 ca         1 8WC       0.099100
     19 C18         -4.0690     0.7910    -0.2420 c3         1 8WC       0.167600
     20 C19         -5.3550    -0.0000    -0.3590 c6         1 8WC      -0.065700
     21 C2           4.4080     1.8780     1.1930 ca         1 8WC      -0.118500
     22 C20         -5.5310    -1.0230     0.7630 c6         1 8WC      -0.071900
     23 C21         -6.8800    -1.7180     0.6450 c6         1 8WC       0.159800
     24 C22         -7.8560     0.1790    -0.4570 c6         1 8WC       0.159800
     25 C23         -6.5490     0.9550    -0.3810 c6         1 8WC      -0.071900
     26 C24         -1.3850     1.7140    -0.1140 ca         1 8WC       0.264900
     27 C3           3.1540     1.3010     1.0520 ca         1 8WC      -0.080000
     28 H1           4.0950     4.3970    -1.0280 ha         1 8WC       0.112500
     29 H2           1.8760     3.3920    -1.2710 ha         1 8WC       0.119500
     30 H5           0.9030    -2.3260     1.4350 ha         1 8WC       0.127000
     31 H6           2.6480    -4.0500     1.3040 ha         1 8WC       0.127500
     32 H7           4.5000    -1.9160    -1.9300 ha         1 8WC       0.127500
     33 H8           2.7510    -0.1990    -1.7960 ha         1 8WC       0.127000
     34 H12         -0.9100    -1.6140    -0.2850 ha         1 8WC       0.136000
     35 H13         -4.0580     1.3580     0.6980 h1         1 8WC       0.039200
     36 H14         -3.9930     1.5110    -1.0660 h1         1 8WC       0.039200
     37 H15         -5.3420    -0.5390    -1.3160 hc         1 8WC       0.057700
     38 H16          5.1090     1.4500     1.9010 ha         1 8WC       0.112500
     39 H17         -4.7370    -1.7700     0.7370 hc         1 8WC       0.050950
     40 H18         -5.4690    -0.5170     1.7330 hc         1 8WC       0.050950
     41 H19         -7.0160    -2.4080     1.4800 h1         1 8WC       0.030450
     42 H20         -6.8810    -2.3270    -0.2750 h1         1 8WC       0.030450
     43 H21         -7.9010    -0.3360    -1.4310 h1         1 8WC       0.030450
     44 H22         -8.7020     0.8680    -0.4230 h1         1 8WC       0.030450
     45 H23         -6.5480     1.5700     0.5250 hc         1 8WC       0.050950
     46 H24         -6.4770     1.6360    -1.2330 hc         1 8WC       0.050950
     47 H25         -2.1370     2.4940    -0.1270 h4         1 8WC       0.025100
     48 H26          2.9020     0.4400     1.6570 ha         1 8WC       0.119500
     49 C            6.1340     3.6170     0.5920 c3         1 8WC      -0.048800
     50 O           -2.9730    -0.1140    -0.2790 os         1 8WC      -0.341100
     51 H3          -8.8440    -1.2160     0.6330 hn         1 8WC       0.412000
     52 H9           6.0600     4.6540     0.9220 hc         1 8WC       0.043033
     53 H10          6.7470     3.0800     1.3140 hc         1 8WC       0.043033
     54 H11          6.6690     3.6240    -0.3590 hc         1 8WC       0.043033
@<TRIPOS>BOND
     1     1     2 ar  
     2     1    16 ar  
     3     1    28 1   
     4     2     3 ar  
     5     2    29 1   
     6     3     5 1   
     7     3    27 ar  
     8     4    23 1   
     9     4    24 1   
    10     4    51 1   
    11     5     6 1   
    12     5     7 ar  
    13     6     8 1   
    14     6    17 2   
    15     7    26 ar  
    16     8     9 1   
    17     8    14 2   
    18     9    10 ar  
    19     9    30 1   
    20    10    11 ar  
    21    10    31 1   
    22    11    12 1   
    23    11    13 ar  
    24    12    15 3   
    25    13    14 ar  
    26    13    32 1   
    27    14    33 1   
    28    16    21 ar  
    29    16    49 1   
    30    17    18 ar  
    31    17    34 1   
    32    18    26 ar  
    33    18    50 1   
    34    19    20 1   
    35    19    35 1   
    36    19    36 1   
    37    19    50 1   
    38    20    22 1   
    39    20    25 1   
    40    20    37 1   
    41    21    27 ar  
    42    21    38 1   
    43    22    23 1   
    44    22    39 1   
    45    22    40 1   
    46    23    41 1   
    47    23    42 1   
    48    24    25 1   
    49    24    43 1   
    50    24    44 1   
    51    25    45 1   
    52    25    46 1   
    53    26    47 1   
    54    27    48 1   
    55    49    52 1   
    56    49    53 1   
    57    49    54 1   
@<TRIPOS>SUBSTRUCTURE
     1 8WC         1 TEMP              0 ****  ****    0 ROOT
