@<TRIPOS>MOLECULE
8WC
   54    57     1     0     0
SMALL
No Charge or Current Charge


@<TRIPOS>ATOM
      1 C4           3.9300     3.6960    -0.2930 ca         1 8WC      -0.118500
      2 C5           2.6820     3.1110    -0.5690 ca         1 8WC      -0.080000
      3 C6           2.2870     1.8950     0.0480 cp         1 8WC      -0.147500
      4 N1          -8.1030    -0.6600     0.8120 n7         1 8WC      -0.863400
      5 C7           0.9530     1.2680    -0.2500 cp         1 8WC       0.385500
      6 C8           0.6610    -0.1870    -0.2100 cq         1 8WC      -0.048000
      7 N2          -0.0690     2.1440    -0.4010 nb         1 8WC      -0.641000
      8 C9           1.7410    -1.2340    -0.2960 cq         1 8WC      -0.013000
      9 C10          1.6580    -2.4220     0.4620 ca         1 8WC      -0.099000
     10 C11          2.6710    -3.3940     0.3810 ca         1 8WC      -0.074000
     11 C12          3.7800    -3.1960    -0.4600 ca         1 8WC      -0.016000
     12 C13          4.8150    -4.1900    -0.5410 cg         1 8WC       0.323000
     13 C14          3.8670    -2.0180    -1.2220 ca         1 8WC      -0.074000
     14 C15          2.8540    -1.0450    -1.1420 ca         1 8WC      -0.099000
     15 N            5.6500    -5.0040    -0.6070 n1         1 8WC      -0.452000
     16 C1           4.8160     3.0880     0.6140 ca         1 8WC      -0.065300
     17 C16         -0.6720    -0.6390    -0.2020 ca         1 8WC      -0.110000
     18 C17         -1.6950     0.3170    -0.2800 ca         1 8WC       0.099100
     19 C18         -4.1160     0.7780    -0.3650 c3         1 8WC       0.167600
     20 C19         -5.4410    -0.0350    -0.3240 c6         1 8WC      -0.065700
     21 C2           4.4380     1.8900     1.2430 ca         1 8WC      -0.118500
     22 C20         -5.6120    -0.8270     1.0040 c6         1 8WC      -0.071900
     23 C21         -6.9640    -1.5820     1.0370 c6         1 8WC       0.159800
     24 C22         -7.9960     0.0790    -0.4680 c6         1 8WC       0.159800
     25 C23         -6.6750     0.8840    -0.5440 c6         1 8WC      -0.071900
     26 C24         -1.3450     1.6880    -0.3940 ca         1 8WC       0.264900
     27 C3           3.1910     1.3040     0.9690 ca         1 8WC      -0.080000
     28 H1           4.2080     4.6240    -0.7880 ha         1 8WC       0.112500
     29 H2           2.0180     3.6000    -1.2790 ha         1 8WC       0.119500
     30 H5           0.8200    -2.5960     1.1320 ha         1 8WC       0.127000
     31 H6           2.5910    -4.3010     0.9780 ha         1 8WC       0.127500
     32 H7           4.7180    -1.8520    -1.8800 ha         1 8WC       0.127500
     33 H8           2.9430    -0.1480    -1.7500 ha         1 8WC       0.127000
     34 H12         -0.9260    -1.6960    -0.1820 ha         1 8WC       0.136000
     35 H13         -4.1040     1.4870     0.4730 h1         1 8WC       0.039200
     36 H14         -4.0760     1.3460    -1.3030 h1         1 8WC       0.039200
     37 H15         -5.3910    -0.7500    -1.1570 hc         1 8WC       0.057700
     38 H16          5.1110     1.4100     1.9510 ha         1 8WC       0.112500
     39 H17         -4.7920    -1.5480     1.1280 hc         1 8WC       0.050950
     40 H18         -5.5570    -0.1410     1.8600 hc         1 8WC       0.050950
     41 H19         -7.0830    -2.0820     2.0100 h1         1 8WC       0.030450
     42 H20         -6.9660    -2.3620     0.2610 h1         1 8WC       0.030450
     43 H21         -8.0390    -0.6340    -1.3060 h1         1 8WC       0.030450
     44 H22         -8.8510     0.7630    -0.5700 h1         1 8WC       0.030450
     45 H23         -6.6900     1.6800     0.2130 hc         1 8WC       0.050950
     46 H24         -6.6060     1.3820    -1.5210 hc         1 8WC       0.050950
     47 H25         -2.1090     2.4580    -0.4910 h4         1 8WC       0.025100
     48 H26          2.9200     0.3870     1.4860 ha         1 8WC       0.119500
     49 C            6.1680     3.7190     0.9090 c3         1 8WC      -0.048800
     50 O           -3.0030    -0.1300    -0.2810 os         1 8WC      -0.341100
     51 H3          -8.9750    -1.2060     0.8080 hn         1 8WC       0.412000
     52 H9           6.1320     4.8100     0.8040 hc         1 8WC       0.043033
     53 H10          6.4980     3.4980     1.9310 hc         1 8WC       0.043033
     54 H11          6.9330     3.3410     0.2210 hc         1 8WC       0.043033
@<TRIPOS>BOND
     1     1     2 ar  
     2     1    16 ar  
     3     1    28 1   
     4     2     3 ar  
     5     2    29 1   
     6     3     5 1   
     7     3    27 ar  
     8     4    23 1   
     9     4    24 1   
    10     4    51 1   
    11     5     6 1   
    12     5     7 ar  
    13     6     8 1   
    14     6    17 2   
    15     7    26 ar  
    16     8     9 1   
    17     8    14 2   
    18     9    10 ar  
    19     9    30 1   
    20    10    11 ar  
    21    10    31 1   
    22    11    12 1   
    23    11    13 ar  
    24    12    15 3   
    25    13    14 ar  
    26    13    32 1   
    27    14    33 1   
    28    16    21 ar  
    29    16    49 1   
    30    17    18 ar  
    31    17    34 1   
    32    18    26 ar  
    33    18    50 1   
    34    19    20 1   
    35    19    35 1   
    36    19    36 1   
    37    19    50 1   
    38    20    22 1   
    39    20    25 1   
    40    20    37 1   
    41    21    27 ar  
    42    21    38 1   
    43    22    23 1   
    44    22    39 1   
    45    22    40 1   
    46    23    41 1   
    47    23    42 1   
    48    24    25 1   
    49    24    43 1   
    50    24    44 1   
    51    25    45 1   
    52    25    46 1   
    53    26    47 1   
    54    27    48 1   
    55    49    52 1   
    56    49    53 1   
    57    49    54 1   
@<TRIPOS>SUBSTRUCTURE
     1 8WC         1 TEMP              0 ****  ****    0 ROOT
