@<TRIPOS>MOLECULE
8WD
   59    63     1     0     0
SMALL
No Charge or Current Charge


@<TRIPOS>ATOM
      1 N01          7.6930     3.0090    -0.2890 n8         1 8WD      -0.988200
      2 C04          6.7370     1.9680     0.1360 c6         1 8WD       0.156500
      3 C06          5.3110     2.5610     0.2600 c6         1 8WD      -0.084900
      4 C09          4.2870     1.4780     0.6820 c6         1 8WD      -0.048900
      5 C12          4.3060     0.2720    -0.3060 c6         1 8WD      -0.284700
      6 C14          5.7410    -0.3140    -0.4400 c6         1 8WD      -0.048900
      7 C17          6.7550     0.7790    -0.8580 c6         1 8WD      -0.084900
      8 S20          3.0860    -1.0200     0.1340 s6         1 8WD       1.217100
      9 O21          3.0190    -2.0340    -0.9240 o          1 8WD      -0.544500
     10 O22          3.2800    -1.4410     1.5260 o          1 8WD      -0.544500
     11 N23          1.6200    -0.1190     0.0760 n3         1 8WD      -0.807500
     12 C24          0.8010     0.1340     1.2710 c5         1 8WD       0.243000
     13 C26         -0.0320     1.3390     0.7430 c5         1 8WD      -0.077400
     14 C29         -0.1420     1.0830    -0.8040 c5         1 8WD      -0.077400
     15 C32          0.6540    -0.2380    -1.0290 c5         1 8WD       0.243000
     16 C34         -0.1780    -1.5480    -0.8720 c6         1 8WD      -0.116900
     17 C37         -0.9160    -1.6700     0.4860 c6         1 8WD       0.126700
     18 C39         -0.0120    -1.1480     1.6320 c6         1 8WD      -0.116900
     19 N42         -2.2110    -0.9750     0.4680 ns         1 8WD      -0.493900
     20 C44         -3.3830    -1.4530    -0.0870 c          1 8WD       0.519600
     21 O45         -3.4420    -2.5590    -0.6140 o          1 8WD      -0.588100
     22 C46         -4.5340    -0.4990     0.0240 cc         1 8WD       0.224500
     23 N47         -4.4890     0.7060     0.5900 nd         1 8WD      -0.370300
     24 O48         -5.8310     1.2130     0.4380 os         1 8WD      -0.064700
     25 C49         -6.5790     0.2660    -0.2120 cd         1 8WD       0.211300
     26 C50         -5.8100    -0.8120    -0.4870 cc         1 8WD      -0.198000
     27 C52         -8.0160     0.4810    -0.5270 cx         1 8WD      -0.196000
     28 C54         -8.5370     1.8500    -0.9080 cx         1 8WD      -0.104900
     29 C57         -8.9190     1.2400     0.4210 cx         1 8WD      -0.104900
     30 H1           8.6120     2.5740    -0.4320 hn         1 8WD       0.391000
     31 H2           7.4310     3.3270    -1.2290 hn         1 8WD       0.391000
     32 H4           7.0570     1.6060     1.1270 h1         1 8WD       0.063700
     33 H5           5.3050     3.3760     0.9960 hc         1 8WD       0.044200
     34 H6           5.0010     3.0010    -0.6980 hc         1 8WD       0.044200
     35 H7           4.5140     1.1350     1.7020 hc         1 8WD       0.057700
     36 H8           3.2860     1.9280     0.7210 hc         1 8WD       0.057700
     37 H9           3.9690     0.6170    -1.2910 h1         1 8WD       0.090700
     38 H10          6.0560    -0.7620     0.5140 hc         1 8WD       0.057700
     39 H11          5.7530    -1.1250    -1.1820 hc         1 8WD       0.057700
     40 H12          6.5150     1.1300    -1.8710 hc         1 8WD       0.044200
     41 H13          7.7630     0.3430    -0.9060 hc         1 8WD       0.044200
     42 H14          1.4070     0.4290     2.1400 h1         1 8WD       0.079200
     43 H15         -1.0060     1.4270     1.2360 hc         1 8WD       0.051950
     44 H16          0.4980     2.2790     0.9340 hc         1 8WD       0.051950
     45 H17         -1.1770     1.0120    -1.1540 hc         1 8WD       0.051950
     46 H18          0.3210     1.9070    -1.3600 hc         1 8WD       0.051950
     47 H19          1.1430    -0.2390    -2.0150 h1         1 8WD       0.079200
     48 H20         -0.8970    -1.6240    -1.6970 hc         1 8WD       0.071200
     49 H21          0.4830    -2.4140    -0.9900 hc         1 8WD       0.071200
     50 H22         -1.1290    -2.7330     0.6740 h1         1 8WD       0.072700
     51 H23          0.6880    -1.9440     1.9160 hc         1 8WD       0.071200
     52 H24         -0.6160    -0.9610     2.5290 hc         1 8WD       0.071200
     53 H25         -2.2700    -0.0540     0.8860 hn         1 8WD       0.333500
     54 H26         -6.0970    -1.7280    -0.9910 ha         1 8WD       0.171000
     55 H27         -8.4620    -0.3670    -1.0440 hc         1 8WD       0.100700
     56 H28         -7.8410     2.6870    -0.8990 hc         1 8WD       0.082200
     57 H29         -9.3020     1.9060    -1.6780 hc         1 8WD       0.082200
     58 H30         -9.9410     0.8880     0.5420 hc         1 8WD       0.082200
     59 H31         -8.4790     1.6690     1.3190 hc         1 8WD       0.082200
@<TRIPOS>BOND
     1     1     2 1   
     2     1    30 1   
     3     1    31 1   
     4     2     3 1   
     5     2     7 1   
     6     2    32 1   
     7     3     4 1   
     8     3    33 1   
     9     3    34 1   
    10     4     5 1   
    11     4    35 1   
    12     4    36 1   
    13     5     6 1   
    14     5     8 1   
    15     5    37 1   
    16     6     7 1   
    17     6    38 1   
    18     6    39 1   
    19     7    40 1   
    20     7    41 1   
    21     8     9 2   
    22     8    10 2   
    23     8    11 1   
    24    11    12 1   
    25    11    15 1   
    26    12    13 1   
    27    12    18 1   
    28    12    42 1   
    29    13    14 1   
    30    13    43 1   
    31    13    44 1   
    32    14    15 1   
    33    14    45 1   
    34    14    46 1   
    35    15    16 1   
    36    15    47 1   
    37    16    17 1   
    38    16    48 1   
    39    16    49 1   
    40    17    18 1   
    41    17    19 1   
    42    17    50 1   
    43    18    51 1   
    44    18    52 1   
    45    19    20 1   
    46    19    53 1   
    47    20    21 2   
    48    20    22 1   
    49    22    23 2   
    50    22    26 1   
    51    23    24 1   
    52    24    25 1   
    53    25    26 2   
    54    25    27 1   
    55    26    54 1   
    56    27    28 1   
    57    27    29 1   
    58    27    55 1   
    59    28    29 1   
    60    28    56 1   
    61    28    57 1   
    62    29    58 1   
    63    29    59 1   
@<TRIPOS>SUBSTRUCTURE
     1 8WD         1 TEMP              0 ****  ****    0 ROOT
