@<TRIPOS>MOLECULE
8WD
   59    63     1     0     0
SMALL
bcc


@<TRIPOS>ATOM
      1 N01          7.6150     2.9640    -0.3310 n8         1 8WD      -0.877800
      2 C04          6.6800     1.9200     0.0620 c6         1 8WD       0.156500
      3 C06          5.2870     2.5140     0.2410 c6         1 8WD      -0.084900
      4 C09          4.2750     1.4670     0.6980 c6         1 8WD      -0.048900
      5 C12          4.2420     0.3000    -0.2810 c6         1 8WD      -0.173900
      6 C14          5.6230    -0.3290    -0.4520 c6         1 8WD      -0.048900
      7 C17          6.6200     0.7350    -0.9030 c6         1 8WD      -0.084900
      8 S20          3.0520    -0.9480     0.2390 s6         1 8WD       1.247900
      9 O21          3.0770    -2.0110    -0.7620 o          1 8WD      -0.615300
     10 O22          3.3220    -1.2920     1.6320 o          1 8WD      -0.615300
     11 N23          1.6200    -0.1720     0.1790 n3         1 8WD      -0.807500
     12 C24          0.7740     0.1390     1.3320 c5         1 8WD       0.243000
     13 C26          0.0040     1.3430     0.7740 c5         1 8WD      -0.077400
     14 C29         -0.0730     1.0930    -0.7490 c5         1 8WD      -0.077400
     15 C32          0.7080    -0.2130    -0.9680 c5         1 8WD       0.243000
     16 C34         -0.1590    -1.4660    -0.8720 c6         1 8WD      -0.116900
     17 C37         -0.9280    -1.5770     0.4570 c6         1 8WD       0.126700
     18 C39         -0.1040    -1.0700     1.6520 c6         1 8WD      -0.116900
     19 N42         -2.2140    -0.8920     0.4110 ns         1 8WD      -0.560900
     20 C44         -3.2770    -1.3950    -0.2230 c          1 8WD       0.586600
     21 O45         -3.2880    -2.4500    -0.8390 o          1 8WD      -0.588100
     22 C46         -4.5160    -0.5720    -0.1420 cc         1 8WD       0.289800
     23 N47         -4.5190     0.6140     0.3960 nd         1 8WD      -0.370300
     24 O48         -5.7930     1.0640     0.2990 os         1 8WD      -0.109100
     25 C49         -6.5620     0.1450    -0.3020 cd         1 8WD       0.321000
     26 C50         -5.7970    -0.9330    -0.6130 cc         1 8WD      -0.346600
     27 C52         -7.9770     0.4370    -0.5040 cx         1 8WD      -0.196000
     28 C54         -8.4410     1.8320    -0.8410 cx         1 8WD      -0.104900
     29 C57         -8.7500     1.2590     0.4960 cx         1 8WD      -0.104900
     30 H1           8.5390     2.5630    -0.4430 hn         1 8WD       0.335800
     31 H2           7.3610     3.3150    -1.2480 hn         1 8WD       0.335800
     32 H4           7.0090     1.5420     1.0380 h1         1 8WD       0.063700
     33 H5           5.3230     3.3270     0.9690 hc         1 8WD       0.044200
     34 H6           4.9560     2.9510    -0.7080 hc         1 8WD       0.044200
     35 H7           4.5530     1.1020     1.6900 hc         1 8WD       0.057700
     36 H8           3.2860     1.9230     0.7840 hc         1 8WD       0.057700
     37 H9           3.8740     0.6430    -1.2550 h1         1 8WD       0.090700
     38 H10          5.9500    -0.7590     0.5000 hc         1 8WD       0.057700
     39 H11          5.5880    -1.1410    -1.1790 hc         1 8WD       0.057700
     40 H12          6.3390     1.1000    -1.8980 hc         1 8WD       0.044200
     41 H13          7.6110     0.2820    -1.0000 hc         1 8WD       0.044200
     42 H14          1.3720     0.4040     2.2020 h1         1 8WD       0.079200
     43 H15         -0.9670     1.4740     1.2520 hc         1 8WD       0.051950
     44 H16          0.5660     2.2540     0.9780 hc         1 8WD       0.051950
     45 H17         -1.0930     1.0180    -1.1250 hc         1 8WD       0.051950
     46 H18          0.4120     1.9060    -1.2880 hc         1 8WD       0.051950
     47 H19          1.2590    -0.2070    -1.9090 h1         1 8WD       0.079200
     48 H20         -0.8560    -1.5080    -1.7100 hc         1 8WD       0.071200
     49 H21          0.4890    -2.3390    -0.9680 hc         1 8WD       0.071200
     50 H22         -1.1440    -2.6330     0.6280 h1         1 8WD       0.072700
     51 H23          0.5440    -1.8800     1.9930 hc         1 8WD       0.071200
     52 H24         -0.7680    -0.8450     2.4900 hc         1 8WD       0.071200
     53 H25         -2.3420    -0.0470     0.9440 hn         1 8WD       0.333500
     54 H26         -6.1000    -1.8450    -1.0980 ha         1 8WD       0.189000
     55 H27         -8.5070    -0.3790    -0.9790 hc         1 8WD       0.100700
     56 H28         -7.6950     2.6130    -0.9070 hc         1 8WD       0.082200
     57 H29         -9.2390     1.9110    -1.5680 hc         1 8WD       0.082200
     58 H30         -9.7630     0.9420     0.7030 hc         1 8WD       0.082200
     59 H31         -8.2170     1.6430     1.3560 hc         1 8WD       0.082200
@<TRIPOS>BOND
     1     1     2 1   
     2     1    30 1   
     3     1    31 1   
     4     2     3 1   
     5     2     7 1   
     6     2    32 1   
     7     3     4 1   
     8     3    33 1   
     9     3    34 1   
    10     4     5 1   
    11     4    35 1   
    12     4    36 1   
    13     5     6 1   
    14     5     8 1   
    15     5    37 1   
    16     6     7 1   
    17     6    38 1   
    18     6    39 1   
    19     7    40 1   
    20     7    41 1   
    21     8     9 2   
    22     8    10 2   
    23     8    11 1   
    24    11    12 1   
    25    11    15 1   
    26    12    13 1   
    27    12    18 1   
    28    12    42 1   
    29    13    14 1   
    30    13    43 1   
    31    13    44 1   
    32    14    15 1   
    33    14    45 1   
    34    14    46 1   
    35    15    16 1   
    36    15    47 1   
    37    16    17 1   
    38    16    48 1   
    39    16    49 1   
    40    17    18 1   
    41    17    19 1   
    42    17    50 1   
    43    18    51 1   
    44    18    52 1   
    45    19    20 1   
    46    19    53 1   
    47    20    21 2   
    48    20    22 1   
    49    22    23 2   
    50    22    26 1   
    51    23    24 1   
    52    24    25 1   
    53    25    26 2   
    54    25    27 1   
    55    26    54 1   
    56    27    28 1   
    57    27    29 1   
    58    27    55 1   
    59    28    29 1   
    60    28    56 1   
    61    28    57 1   
    62    29    58 1   
    63    29    59 1   
@<TRIPOS>SUBSTRUCTURE
     1 8WD         1 TEMP              0 ****  ****    0 ROOT
