@<TRIPOS>MOLECULE
8WE
   81    82     1     0     0
SMALL
No Charge or Current Charge


@<TRIPOS>ATOM
      1 C1           1.5810     0.4700    -2.5980 c          1 8WE       0.606100
      2 O1           2.5510     0.9050    -3.2040 o          1 8WE      -0.500000
      3 C2           1.2190    -1.0150    -2.5320 c3         1 8WE      -0.134400
      4 C3           2.1290    -1.7940    -1.5460 c3         1 8WE      -0.075400
      5 C4           1.5910    -3.2130    -1.2000 c3         1 8WE      -0.067400
      6 C5           1.0950    -3.4120     0.2630 c3         1 8WE      -0.046700
      7 C21          2.2710    -3.5040     1.2640 c3         1 8WE      -0.091100
      8 C6           0.0510    -2.3410     0.6910 c3         1 8WE      -0.184400
      9 C7          -0.9170    -2.8290     1.7830 c          1 8WE       0.575100
     10 O7          -0.6020    -2.8750     2.9650 o          1 8WE      -0.521100
     11 C8          -2.3460    -3.1380     1.3170 c3         1 8WE      -0.186400
     12 C9          -3.1640    -1.8250     1.1920 c3         1 8WE      -0.066400
     13 C10         -4.2590    -1.8630     0.0930 c3         1 8WE      -0.065400
     14 C11         -4.8310    -0.4780    -0.3300 c6         1 8WE       0.174300
     15 C12         -5.6050     0.2550     0.7960 c6         1 8WE      -0.106400
     16 C13         -6.0750     1.6480     0.2990 c6         1 8WE      -0.061700
     17 C22         -6.8290     2.4300     1.4050 c3         1 8WE      -0.085100
     18 C14         -4.8650     2.4510    -0.2520 c6         1 8WE      -0.106400
     19 C15         -4.0630     1.6170    -1.2910 c6         1 8WE       0.218500
     20 O11         -3.7130     0.3280    -0.7560 os         1 8WE      -0.457000
     21 C16         -2.8050     2.3340    -1.7690 c2         1 8WE      -0.234200
     22 C17         -1.6630     2.5630    -1.0800 c2         1 8WE      -0.058400
     23 C23         -1.3990     2.1450     0.3650 c3         1 8WE      -0.061900
     24 C18         -0.5100     3.3560    -1.7070 c3         1 8WE      -0.045200
     25 C19          0.8880     2.6640    -1.7770 c3         1 8WE       0.141300
     26 O19          0.6720     1.2380    -1.9160 os         1 8WE      -0.440100
     27 C20          1.8050     2.9530    -0.5320 c3         1 8WE       0.306700
     28 O20          2.1200     4.3420    -0.4480 oh         1 8WE      -0.648000
     29 N20          3.0560     2.2190    -0.5570 ns         1 8WE      -0.547900
     30 C24          3.4200     1.2860     0.3770 c          1 8WE       0.618300
     31 O3           2.7570     1.0800     1.3800 o          1 8WE      -0.594100
     32 C25          4.6810     0.5660     0.0310 ce         1 8WE      -0.309200
     33 C26          5.3320    -0.4100     0.7340 cf         1 8WE      -0.084000
     34 C27          4.9600    -0.9900     2.0200 cf         1 8WE      -0.213000
     35 C28          5.6330    -2.0070     2.6030 c2         1 8WE      -0.179200
     36 C29          5.2680    -2.6430     3.9270 c3         1 8WE      -0.065900
     37 H21          0.1800    -1.1030    -2.1950 hc         1 8WE       0.074200
     38 H1           1.3250    -1.4530    -3.5310 hc         1 8WE       0.074200
     39 H31          3.1300    -1.8850    -1.9870 hc         1 8WE       0.052200
     40 H2           2.2600    -1.2080    -0.6290 hc         1 8WE       0.052200
     41 H41          0.7750    -3.4700    -1.8860 hc         1 8WE       0.040700
     42 H3           2.3810    -3.9460    -1.4050 hc         1 8WE       0.040700
     43 H4           0.5900    -4.3880     0.2780 hc         1 8WE       0.057700
     44 H211         2.8090    -2.5530     1.3210 hc         1 8WE       0.039700
     45 H213         1.9140    -3.7550     2.2690 hc         1 8WE       0.039700
     46 H212         2.9820    -4.2810     0.9590 hc         1 8WE       0.039700
     47 H61          0.5720    -1.4460     1.0510 hc         1 8WE       0.061700
     48 H62         -0.5410    -2.0840    -0.1930 hc         1 8WE       0.061700
     49 H81         -2.2830    -3.5850     0.3170 hc         1 8WE       0.060200
     50 H82         -2.8430    -3.8220     2.0140 hc         1 8WE       0.060200
     51 H91         -3.6140    -1.5820     2.1630 hc         1 8WE       0.055700
     52 H5          -2.4730    -1.0040     0.9660 hc         1 8WE       0.055700
     53 H162        -3.8420    -2.3380    -0.8040 hc         1 8WE       0.045200
     54 H102        -5.0740    -2.5160     0.4260 hc         1 8WE       0.045200
     55 H141        -5.5010    -0.6330    -1.1890 h1         1 8WE       0.027700
     56 H142        -6.4690    -0.3480     1.1060 hc         1 8WE       0.050700
     57 H151        -4.9650     0.3730     1.6800 hc         1 8WE       0.050700
     58 H6          -6.7940     1.4990    -0.5190 hc         1 8WE       0.042700
     59 H223        -6.1820     2.6230     2.2700 hc         1 8WE       0.034700
     60 H7          -7.1850     3.3980     1.0320 hc         1 8WE       0.034700
     61 H222        -7.7030     1.8710     1.7590 hc         1 8WE       0.034700
     62 H121        -5.2180     3.3770    -0.7260 hc         1 8WE       0.052200
     63 H122        -4.2170     2.7610     0.5760 hc         1 8WE       0.052200
     64 H111        -4.7100     1.4480    -2.1640 h1         1 8WE       0.026700
     65 H101        -2.8860     2.6970    -2.7930 ha         1 8WE       0.169000
     66 H231        -2.2670     1.6870     0.8480 hc         1 8WE       0.050033
     67 H232        -0.5940     1.4050     0.4260 hc         1 8WE       0.050033
     68 H233        -1.1130     3.0080     0.9780 hc         1 8WE       0.050033
     69 H181        -0.7780     3.6270    -2.7350 hc         1 8WE       0.060700
     70 H182        -0.4120     4.3170    -1.1880 hc         1 8WE       0.060700
     71 H191         1.3950     3.0640    -2.6660 h1         1 8WE       0.057700
     72 H201         1.2570     2.6660     0.3750 h2         1 8WE       0.123700
     73 H202         2.7970     4.5190    -1.1340 ho         1 8WE       0.439000
     74 H203         3.6310     2.2770    -1.3870 hn         1 8WE       0.315500
     75 H2'1         5.1270     0.8660    -0.9150 ha         1 8WE       0.180000
     76 H3'1         6.2450    -0.8110     0.2840 ha         1 8WE       0.165000
     77 H4'1         4.0880    -0.5860     2.5340 ha         1 8WE       0.208000
     78 H8           6.5080    -2.4380     2.1120 ha         1 8WE       0.163000
     79 H9           5.9610    -3.4540     4.1810 hc         1 8WE       0.046700
     80 H10          5.3010    -1.9070     4.7400 hc         1 8WE       0.046700
     81 H11          4.2560    -3.0650     3.8960 hc         1 8WE       0.046700
@<TRIPOS>BOND
     1     1     2 2   
     2     1     3 1   
     3     1    26 1   
     4     3     4 1   
     5     3    37 1   
     6     3    38 1   
     7     4     5 1   
     8     4    39 1   
     9     4    40 1   
    10     5     6 1   
    11     5    41 1   
    12     5    42 1   
    13     6     7 1   
    14     6     8 1   
    15     6    43 1   
    16     7    44 1   
    17     7    45 1   
    18     7    46 1   
    19     8     9 1   
    20     8    47 1   
    21     8    48 1   
    22     9    10 2   
    23     9    11 1   
    24    11    12 1   
    25    11    49 1   
    26    11    50 1   
    27    12    13 1   
    28    12    51 1   
    29    12    52 1   
    30    13    14 1   
    31    13    53 1   
    32    13    54 1   
    33    14    15 1   
    34    14    20 1   
    35    14    55 1   
    36    15    16 1   
    37    15    56 1   
    38    15    57 1   
    39    16    17 1   
    40    16    18 1   
    41    16    58 1   
    42    17    59 1   
    43    17    60 1   
    44    17    61 1   
    45    18    19 1   
    46    18    62 1   
    47    18    63 1   
    48    19    20 1   
    49    19    21 1   
    50    19    64 1   
    51    21    22 2   
    52    21    65 1   
    53    22    23 1   
    54    22    24 1   
    55    23    66 1   
    56    23    67 1   
    57    23    68 1   
    58    24    25 1   
    59    24    69 1   
    60    24    70 1   
    61    25    26 1   
    62    25    27 1   
    63    25    71 1   
    64    27    28 1   
    65    27    29 1   
    66    27    72 1   
    67    28    73 1   
    68    29    30 1   
    69    29    74 1   
    70    30    31 2   
    71    30    32 1   
    72    32    33 2   
    73    32    75 1   
    74    33    34 1   
    75    33    76 1   
    76    34    35 2   
    77    34    77 1   
    78    35    36 1   
    79    35    78 1   
    80    36    79 1   
    81    36    80 1   
    82    36    81 1   
@<TRIPOS>SUBSTRUCTURE
     1 8WE         1 TEMP              0 ****  ****    0 ROOT
