@<TRIPOS>MOLECULE
8WE
   81    82     1     0     0
SMALL
abcg2


@<TRIPOS>ATOM
      1 C1           1.4770     0.2250    -2.6240 c          1 8WE       0.606100
      2 O1           2.2360     0.6180    -3.4730 o          1 8WE      -0.500000
      3 C2           1.2840    -1.2130    -2.2300 c3         1 8WE      -0.134400
      4 C3           2.2510    -1.5410    -1.0790 c3         1 8WE      -0.075400
      5 C4           2.1080    -2.9320    -0.4600 c3         1 8WE      -0.067400
      6 C5           1.0280    -3.1260     0.6180 c3         1 8WE      -0.046700
      7 C21          1.1360    -2.0860     1.7310 c3         1 8WE      -0.091100
      8 C6          -0.3780    -3.1800     0.0330 c3         1 8WE      -0.184400
      9 C7          -1.4660    -3.7140     0.9360 c          1 8WE       0.575100
     10 O7          -1.2350    -4.2830     1.9790 o          1 8WE      -0.521100
     11 C8          -2.8700    -3.5040     0.4230 c3         1 8WE      -0.186400
     12 C9          -3.3390    -2.0570     0.6280 c3         1 8WE      -0.066400
     13 C10         -4.5790    -1.7550    -0.2080 c3         1 8WE      -0.065400
     14 C11         -4.9420    -0.2810    -0.3100 c6         1 8WE       0.174300
     15 C12         -5.4670     0.3480     0.9730 c6         1 8WE      -0.106400
     16 C13         -5.8000     1.8200     0.7360 c6         1 8WE      -0.061700
     17 C22         -6.2930     2.5010     2.0050 c3         1 8WE      -0.085100
     18 C14         -4.5760     2.5250     0.1550 c6         1 8WE      -0.106400
     19 C15         -4.0150     1.7720    -1.0540 c6         1 8WE       0.218500
     20 O11         -3.7940     0.4050    -0.7710 os         1 8WE      -0.457000
     21 C16         -2.7410     2.3640    -1.5980 c2         1 8WE      -0.234200
     22 C17         -1.5380     2.4000    -1.0180 c2         1 8WE      -0.058400
     23 C23         -1.2340     1.8540     0.3460 c3         1 8WE      -0.061900
     24 C18         -0.4260     3.1260    -1.7420 c3         1 8WE      -0.045200
     25 C19          0.9400     2.4340    -1.8170 c3         1 8WE       0.141300
     26 O19          0.7340     1.0240    -1.8570 os         1 8WE      -0.440100
     27 C20          1.8640     2.7480    -0.6240 c3         1 8WE       0.306700
     28 O20          2.0580     4.1270    -0.4850 oh         1 8WE      -0.648000
     29 N20          3.0960     2.0220    -0.7530 ns         1 8WE      -0.547900
     30 C24          3.6980     1.3740     0.2810 c          1 8WE       0.618300
     31 O3           3.2170     1.3530     1.4050 o          1 8WE      -0.594100
     32 C25          4.9490     0.6950    -0.1020 ce         1 8WE      -0.309200
     33 C26          5.5460    -0.2950     0.5820 cf         1 8WE      -0.084000
     34 C27          5.1340    -0.9310     1.8150 cf         1 8WE      -0.213000
     35 C28          5.8240    -1.9560     2.3300 c2         1 8WE      -0.179200
     36 C29          5.4670    -2.6820     3.5790 c3         1 8WE      -0.065900
     37 H21          0.2480    -1.3760    -1.9350 hc         1 8WE       0.074200
     38 H1           1.4940    -1.8550    -3.0860 hc         1 8WE       0.074200
     39 H31          3.2690    -1.4410    -1.4630 hc         1 8WE       0.052200
     40 H2           2.1580    -0.7880    -0.2960 hc         1 8WE       0.052200
     41 H41          1.9720    -3.6780    -1.2500 hc         1 8WE       0.040700
     42 H3           3.0680    -3.1700     0.0070 hc         1 8WE       0.040700
     43 H4           1.2290    -4.1060     1.0610 hc         1 8WE       0.057700
     44 H211         0.8120    -1.0960     1.4010 hc         1 8WE       0.039700
     45 H213         0.5240    -2.3610     2.5890 hc         1 8WE       0.039700
     46 H212         2.1670    -1.9900     2.0790 hc         1 8WE       0.039700
     47 H61         -0.6950    -2.1990    -0.3300 hc         1 8WE       0.061700
     48 H62         -0.3920    -3.8250    -0.8560 hc         1 8WE       0.061700
     49 H81         -2.8790    -3.7240    -0.6490 hc         1 8WE       0.060200
     50 H82         -3.5540    -4.2000     0.9120 hc         1 8WE       0.060200
     51 H91         -3.5300    -1.8810     1.6890 hc         1 8WE       0.055700
     52 H5          -2.5450    -1.3660     0.3400 hc         1 8WE       0.055700
     53 H162        -4.4150    -2.1320    -1.2230 hc         1 8WE       0.045200
     54 H102        -5.4430    -2.3010     0.1810 hc         1 8WE       0.045200
     55 H141        -5.7430    -0.1920    -1.0640 h1         1 8WE       0.027700
     56 H142        -6.3570    -0.1950     1.3030 hc         1 8WE       0.050700
     57 H151        -4.7220     0.2640     1.7730 hc         1 8WE       0.050700
     58 H6          -6.6050     1.8640    -0.0090 hc         1 8WE       0.042700
     59 H223        -5.5270     2.4810     2.7830 hc         1 8WE       0.034700
     60 H7          -6.5530     3.5450     1.8220 hc         1 8WE       0.034700
     61 H222        -7.1800     2.0020     2.3980 hc         1 8WE       0.034700
     62 H121        -4.8350     3.5410    -0.1580 hc         1 8WE       0.052200
     63 H122        -3.8120     2.6220     0.9320 hc         1 8WE       0.052200
     64 H111        -4.7740     1.8450    -1.8510 h1         1 8WE       0.026700
     65 H101        -2.8370     2.8110    -2.5830 ha         1 8WE       0.169000
     66 H231        -2.1050     1.4330     0.8360 hc         1 8WE       0.050033
     67 H232        -0.4860     1.0610     0.2970 hc         1 8WE       0.050033
     68 H233        -0.8260     2.6380     0.9890 hc         1 8WE       0.050033
     69 H181        -0.7540     3.3410    -2.7590 hc         1 8WE       0.060700
     70 H182        -0.2730     4.1010    -1.2710 hc         1 8WE       0.060700
     71 H191         1.4390     2.7690    -2.7330 h1         1 8WE       0.057700
     72 H201         1.3980     2.4210     0.3040 h2         1 8WE       0.123700
     73 H202         2.4400     4.4850    -1.2960 ho         1 8WE       0.439000
     74 H203         3.5580     2.0220    -1.6500 hn         1 8WE       0.315500
     75 H2'1         5.3980     0.9960    -1.0420 ha         1 8WE       0.180000
     76 H3'1         6.4510    -0.7000     0.1360 ha         1 8WE       0.165000
     77 H4'1         4.2460    -0.5740     2.3180 ha         1 8WE       0.208000
     78 H8           6.7160    -2.3010     1.8120 ha         1 8WE       0.163000
     79 H9           6.2880    -2.6400     4.2980 hc         1 8WE       0.046700
     80 H10          4.5750    -2.2750     4.0520 hc         1 8WE       0.046700
     81 H11          5.2930    -3.7410     3.3730 hc         1 8WE       0.046700
@<TRIPOS>BOND
     1     1     2 2   
     2     1     3 1   
     3     1    26 1   
     4     3     4 1   
     5     3    37 1   
     6     3    38 1   
     7     4     5 1   
     8     4    39 1   
     9     4    40 1   
    10     5     6 1   
    11     5    41 1   
    12     5    42 1   
    13     6     7 1   
    14     6     8 1   
    15     6    43 1   
    16     7    44 1   
    17     7    45 1   
    18     7    46 1   
    19     8     9 1   
    20     8    47 1   
    21     8    48 1   
    22     9    10 2   
    23     9    11 1   
    24    11    12 1   
    25    11    49 1   
    26    11    50 1   
    27    12    13 1   
    28    12    51 1   
    29    12    52 1   
    30    13    14 1   
    31    13    53 1   
    32    13    54 1   
    33    14    15 1   
    34    14    20 1   
    35    14    55 1   
    36    15    16 1   
    37    15    56 1   
    38    15    57 1   
    39    16    17 1   
    40    16    18 1   
    41    16    58 1   
    42    17    59 1   
    43    17    60 1   
    44    17    61 1   
    45    18    19 1   
    46    18    62 1   
    47    18    63 1   
    48    19    20 1   
    49    19    21 1   
    50    19    64 1   
    51    21    22 2   
    52    21    65 1   
    53    22    23 1   
    54    22    24 1   
    55    23    66 1   
    56    23    67 1   
    57    23    68 1   
    58    24    25 1   
    59    24    69 1   
    60    24    70 1   
    61    25    26 1   
    62    25    27 1   
    63    25    71 1   
    64    27    28 1   
    65    27    29 1   
    66    27    72 1   
    67    28    73 1   
    68    29    30 1   
    69    29    74 1   
    70    30    31 2   
    71    30    32 1   
    72    32    33 2   
    73    32    75 1   
    74    33    34 1   
    75    33    76 1   
    76    34    35 2   
    77    34    77 1   
    78    35    36 1   
    79    35    78 1   
    80    36    79 1   
    81    36    80 1   
    82    36    81 1   
@<TRIPOS>SUBSTRUCTURE
     1 8WE         1 TEMP              0 ****  ****    0 ROOT
