@<TRIPOS>MOLECULE
8WF
   55    56     1     0     0
SMALL
bcc


@<TRIPOS>ATOM
      1 C1          -5.2420     1.6150     0.0350 ca         1 8WF       0.148100
      2 O1          -5.9520     2.7140     0.3010 oh         1 8WF      -0.481100
      3 C2          -4.0240     1.6160    -0.5870 ca         1 8WF      -0.232000
      4 C3          -3.3260     0.4260    -0.8350 ca         1 8WF      -0.083600
      5 N1          -3.8310    -0.7530    -0.4600 na         1 8WF       0.190600
      6 O4          -3.1900    -1.8470    -0.6630 o          1 8WF      -0.351000
      7 C5          -5.0720    -0.8080     0.1600 ca         1 8WF      -0.047300
      8 C6          -5.5950    -2.0600     0.5240 ca         1 8WF      -0.090000
      9 C7          -6.8190    -2.1310     1.1380 ca         1 8WF      -0.118000
     10 C8          -7.5550    -0.9660     1.4120 ca         1 8WF      -0.120000
     11 C9          -7.0560     0.2610     1.0620 ca         1 8WF      -0.098000
     12 C10         -5.8020     0.3690     0.4240 ca         1 8WF      -0.048000
     13 C11         -1.9820     0.4370    -1.4810 c3         1 8WF      -0.019100
     14 C12          0.5220     0.3120    -1.1270 c3         1 8WF      -0.073400
     15 C13         -0.8450     0.3620    -0.4570 c3         1 8WF      -0.071400
     16 C14          1.6730     0.2810    -0.1280 c3         1 8WF      -0.074400
     17 C15          3.0390     0.1730    -0.7950 c3         1 8WF      -0.074400
     18 C16          4.1950     0.1500     0.1970 c3         1 8WF      -0.074400
     19 C17          5.5570     0.0180    -0.4740 c3         1 8WF      -0.074400
     20 H1          -5.4840     3.5050     0.0080 ho         1 8WF       0.435000
     21 H2          -3.5640     2.5440    -0.9040 ha         1 8WF       0.149000
     22 H4          -5.0300    -2.9550     0.3160 ha         1 8WF       0.177000
     23 H5          -7.2210    -3.0960     1.4130 ha         1 8WF       0.140000
     24 H6          -8.5180    -1.0390     1.9000 ha         1 8WF       0.139000
     25 H7          -7.6250     1.1550     1.2720 ha         1 8WF       0.152000
     26 H8          -1.9000    -0.3960    -2.1820 hc         1 8WF       0.063200
     27 H9          -1.8860     1.3580    -2.0590 hc         1 8WF       0.063200
     28 H10          0.5760    -0.5740    -1.7700 hc         1 8WF       0.038200
     29 H11          0.6380     1.1760    -1.7900 hc         1 8WF       0.038200
     30 H12         -0.9010     1.2310     0.2060 hc         1 8WF       0.048700
     31 H13         -0.9760    -0.5220     0.1710 hc         1 8WF       0.048700
     32 H14          1.6390     1.1830     0.4920 hc         1 8WF       0.038200
     33 H15          1.5370    -0.5630     0.5560 hc         1 8WF       0.038200
     34 H16          3.0710    -0.7330    -1.4100 hc         1 8WF       0.036700
     35 H17          3.1720     1.0120    -1.4880 hc         1 8WF       0.036700
     36 H18          4.1730     1.0640     0.8010 hc         1 8WF       0.037200
     37 H19          4.0550    -0.6800     0.8980 hc         1 8WF       0.037200
     38 H20          5.5770    -0.8970    -1.0760 hc         1 8WF       0.037200
     39 H21          5.6960     0.8460    -1.1790 hc         1 8WF       0.037200
     40 C4           6.7170    -0.0020     0.5140 c3         1 8WF      -0.074400
     41 C18          8.0770    -0.1400    -0.1600 c3         1 8WF      -0.074400
     42 C19          9.2390    -0.1580     0.8250 c3         1 8WF      -0.075400
     43 C20         10.5990    -0.2920     0.1510 c3         1 8WF      -0.075400
     44 C21         11.7520    -0.3060     1.1460 c3         1 8WF      -0.088100
     45 H22          6.7000     0.9150     1.1130 hc         1 8WF       0.037200
     46 H23          6.5770    -0.8270     1.2210 hc         1 8WF       0.037200
     47 H24          8.0940    -1.0590    -0.7580 hc         1 8WF       0.036700
     48 H25          8.2150     0.6840    -0.8690 hc         1 8WF       0.036700
     49 H26          9.2200     0.7600     1.4250 hc         1 8WF       0.037200
     50 H27          9.1030    -0.9830     1.5330 hc         1 8WF       0.037200
     51 H28         10.6180    -1.2090    -0.4460 hc         1 8WF       0.036700
     52 H29         10.7340     0.5320    -0.5560 hc         1 8WF       0.036700
     53 H30         11.7720     0.6130     1.7370 hc         1 8WF       0.031367
     54 H31         11.6600    -1.1420     1.8420 hc         1 8WF       0.031367
     55 H32         12.7160    -0.3960     0.6450 hc         1 8WF       0.031367
@<TRIPOS>BOND
     1     1     2 1   
     2     1     3 ar  
     3     1    12 ar  
     4     2    20 1   
     5     3     4 ar  
     6     3    21 1   
     7     4     5 1   
     8     4    13 1   
     9     5     6 1   
    10     5     7 2   
    11     7     8 ar  
    12     7    12 ar  
    13     8     9 ar  
    14     8    22 1   
    15     9    10 ar  
    16     9    23 1   
    17    10    11 ar  
    18    10    24 1   
    19    11    12 ar  
    20    11    25 1   
    21    13    15 1   
    22    13    26 1   
    23    13    27 1   
    24    14    15 1   
    25    14    16 1   
    26    14    28 1   
    27    14    29 1   
    28    15    30 1   
    29    15    31 1   
    30    16    17 1   
    31    16    32 1   
    32    16    33 1   
    33    17    18 1   
    34    17    34 1   
    35    17    35 1   
    36    18    19 1   
    37    18    36 1   
    38    18    37 1   
    39    19    38 1   
    40    19    39 1   
    41    19    40 1   
    42    40    41 1   
    43    40    45 1   
    44    40    46 1   
    45    41    42 1   
    46    41    47 1   
    47    41    48 1   
    48    42    43 1   
    49    42    49 1   
    50    42    50 1   
    51    43    44 1   
    52    43    51 1   
    53    43    52 1   
    54    44    53 1   
    55    44    54 1   
    56    44    55 1   
@<TRIPOS>SUBSTRUCTURE
     1 8WF         1 TEMP              0 ****  ****    0 ROOT
