@<TRIPOS>MOLECULE
8WF
   55    56     1     0     0
SMALL
No Charge or Current Charge


@<TRIPOS>ATOM
      1 C1          -5.2160     1.5960     0.1340 ca         1 8WF       0.148100
      2 O1          -5.7560     2.8170     0.4220 oh         1 8WF      -0.520100
      3 C2          -3.9710     1.5430    -0.5070 ca         1 8WF      -0.214000
      4 C3          -3.3830     0.3010    -0.8210 ca         1 8WF      -0.134300
      5 N1          -4.0390    -0.8980    -0.4810 na         1 8WF       0.431300
      6 O4          -3.4990    -1.9920    -0.7260 o          1 8WF      -0.541000
      7 C5          -5.2960    -0.8530     0.1560 ca         1 8WF      -0.047300
      8 C6          -5.9820    -2.0450     0.4950 ca         1 8WF      -0.072000
      9 C7          -7.2320    -1.9960     1.1330 ca         1 8WF      -0.100000
     10 C8          -7.8150    -0.7590     1.4410 ca         1 8WF      -0.102000
     11 C9          -7.1490     0.4320     1.1120 ca         1 8WF      -0.080000
     12 C10         -5.8900     0.3980     0.4690 ca         1 8WF      -0.048000
     13 C11         -2.0190     0.2760    -1.5170 c3         1 8WF      -0.019100
     14 C12          0.5360     0.1980    -1.1820 c3         1 8WF      -0.073400
     15 C13         -0.8530     0.2080    -0.5070 c3         1 8WF      -0.071400
     16 C14          1.6990     0.1310    -0.1680 c3         1 8WF      -0.074400
     17 C15          3.0880     0.1200    -0.8430 c3         1 8WF      -0.074400
     18 C16          4.2520     0.0530     0.1710 c3         1 8WF      -0.074400
     19 C17          5.6410     0.0430    -0.5030 c3         1 8WF      -0.074400
     20 H1          -5.1390     3.5120     0.1100 ho         1 8WF       0.474000
     21 H2          -3.4510     2.4640    -0.7650 ha         1 8WF       0.131000
     22 H4          -5.5500    -3.0170     0.2660 ha         1 8WF       0.159000
     23 H5          -7.7490    -2.9190     1.3870 ha         1 8WF       0.122000
     24 H6          -8.7840    -0.7220     1.9350 ha         1 8WF       0.121000
     25 H7          -7.6210     1.3800     1.3600 ha         1 8WF       0.134000
     26 H8          -1.9500    -0.5710    -2.2110 hc         1 8WF       0.063200
     27 H9          -1.9000     1.1740    -2.1360 hc         1 8WF       0.063200
     28 H10          0.6000    -0.6610    -1.8610 hc         1 8WF       0.038200
     29 H11          0.6450     1.1010    -1.7950 hc         1 8WF       0.038200
     30 H12         -0.9190     1.0670     0.1730 hc         1 8WF       0.048700
     31 H13         -0.9630    -0.6940     0.1080 hc         1 8WF       0.048700
     32 H14          1.6350     0.9900     0.5110 hc         1 8WF       0.038200
     33 H15          1.5900    -0.7730     0.4450 hc         1 8WF       0.038200
     34 H16          3.1530    -0.7390    -1.5220 hc         1 8WF       0.036700
     35 H17          3.1980     1.0230    -1.4560 hc         1 8WF       0.036700
     36 H18          4.1870     0.9120     0.8510 hc         1 8WF       0.037200
     37 H19          4.1430    -0.8500     0.7850 hc         1 8WF       0.037200
     38 H20          5.7050    -0.8160    -1.1830 hc         1 8WF       0.037200
     39 H21          5.7500     0.9460    -1.1170 hc         1 8WF       0.037200
     40 C4           6.8040    -0.0250     0.5100 c3         1 8WF      -0.074400
     41 C18          8.1940    -0.0350    -0.1640 c3         1 8WF      -0.074400
     42 C19          9.3570    -0.1030     0.8500 c3         1 8WF      -0.075400
     43 C20         10.7460    -0.1130     0.1760 c3         1 8WF      -0.075400
     44 C21         11.9070    -0.1810     1.1870 c3         1 8WF      -0.088100
     45 H22          6.7400     0.8340     1.1900 hc         1 8WF       0.037200
     46 H23          6.6950    -0.9280     1.1240 hc         1 8WF       0.037200
     47 H24          8.2580    -0.8940    -0.8440 hc         1 8WF       0.036700
     48 H25          8.3030     0.8680    -0.7770 hc         1 8WF       0.036700
     49 H26          9.2930     0.7560     1.5300 hc         1 8WF       0.037200
     50 H27          9.2480    -1.0060     1.4630 hc         1 8WF       0.037200
     51 H28         10.8150    -0.9720    -0.5030 hc         1 8WF       0.036700
     52 H29         10.8600     0.7900    -0.4370 hc         1 8WF       0.036700
     53 H30         11.8870     0.6850     1.8590 hc         1 8WF       0.031367
     54 H31         11.8420    -1.0930     1.7930 hc         1 8WF       0.031367
     55 H32         12.8710    -0.1860     0.6630 hc         1 8WF       0.031367
@<TRIPOS>BOND
     1     1     2 1   
     2     1     3 ar  
     3     1    12 ar  
     4     2    20 1   
     5     3     4 ar  
     6     3    21 1   
     7     4     5 1   
     8     4    13 1   
     9     5     6 1   
    10     5     7 2   
    11     7     8 ar  
    12     7    12 ar  
    13     8     9 ar  
    14     8    22 1   
    15     9    10 ar  
    16     9    23 1   
    17    10    11 ar  
    18    10    24 1   
    19    11    12 ar  
    20    11    25 1   
    21    13    15 1   
    22    13    26 1   
    23    13    27 1   
    24    14    15 1   
    25    14    16 1   
    26    14    28 1   
    27    14    29 1   
    28    15    30 1   
    29    15    31 1   
    30    16    17 1   
    31    16    32 1   
    32    16    33 1   
    33    17    18 1   
    34    17    34 1   
    35    17    35 1   
    36    18    19 1   
    37    18    36 1   
    38    18    37 1   
    39    19    38 1   
    40    19    39 1   
    41    19    40 1   
    42    40    41 1   
    43    40    45 1   
    44    40    46 1   
    45    41    42 1   
    46    41    47 1   
    47    41    48 1   
    48    42    43 1   
    49    42    49 1   
    50    42    50 1   
    51    43    44 1   
    52    43    51 1   
    53    43    52 1   
    54    44    53 1   
    55    44    54 1   
    56    44    55 1   
@<TRIPOS>SUBSTRUCTURE
     1 8WF         1 TEMP              0 ****  ****    0 ROOT
