@<TRIPOS>MOLECULE
8WG
   51    55     1     0     0
SMALL
No Charge or Current Charge


@<TRIPOS>ATOM
      1 C2          -7.8650    -1.9180     0.2830 ca         1 8WG       0.131000
      2 C3          -7.4530    -0.5820     0.4010 ca         1 8WG      -0.108000
      3 C4          -6.2910    -0.1440    -0.2600 ca         1 8WG      -0.075500
      4 C5          -5.5330    -1.0430    -1.0400 ca         1 8WG      -0.117300
      5 C6          -4.2690    -0.5790    -1.7660 c3         1 8WG       0.136900
      6 C8          -2.5820    -0.1280     0.0970 cc         1 8WG      -0.140000
      7 Cl1         -9.3190    -2.4650     1.1100 cl         1 8WG      -0.201000
      8 N7          -3.3900     0.2870    -0.9570 na         1 8WG       0.128800
      9 C9          -1.9640     1.0180     0.5150 cd         1 8WG      -0.208300
     10 C10         -0.9720     1.1720     1.6350 c3         1 8WG       0.252100
     11 N11          0.2090     0.3280     1.4490 nq         1 8WG      -0.707600
     12 C12          1.3720     0.4090     2.3810 cy         1 8WG       0.126800
     13 C13          2.1730    -0.2510     1.2030 cy         1 8WG       0.080700
     14 C14          1.1500     0.5320     0.3080 cy         1 8WG       0.126800
     15 N15          3.5930    -0.0210     1.0670 ns         1 8WG      -0.479900
     16 C16          4.3460    -0.4440    -0.0100 c          1 8WG       0.550600
     17 O17          3.8490    -1.0640    -0.9440 o          1 8WG      -0.606100
     18 C18          5.7910    -0.0720     0.0870 cc         1 8WG       0.125500
     19 C19          6.7070    -0.3940    -0.8720 cd         1 8WG      -0.130000
     20 N20          7.8640     0.1380    -0.3610 na         1 8WG       0.143800
     21 N21          7.6620     0.7550     0.8430 nd         1 8WG      -0.185800
     22 N22          6.3870     0.6230     1.1170 nc         1 8WG      -0.357000
     23 C23          9.1480     0.0440    -1.0620 cx         1 8WG       0.002300
     24 C24         10.4360    -0.4780    -0.4650 cx         1 8WG      -0.120400
     25 C25          9.7690    -1.2310    -1.5900 cx         1 8WG      -0.120400
     26 C26         -2.4360     2.0550    -0.3170 cd         1 8WG       0.245900
     27 N27         -3.3030     1.6400    -1.2210 nc         1 8WG      -0.529800
     28 C28         -5.9590    -2.3820    -1.1570 ca         1 8WG      -0.075500
     29 C29         -7.1210    -2.8180    -0.4950 ca         1 8WG      -0.108000
     30 H1          -8.0330     0.1140     1.0020 ha         1 8WG       0.132000
     31 H2          -5.9850     0.8960    -0.1640 ha         1 8WG       0.123000
     32 H3          -3.6830    -1.4510    -2.0800 h1         1 8WG       0.070700
     33 H4          -4.5600    -0.0370    -2.6740 h1         1 8WG       0.070700
     34 H6          -0.6580     2.2230     1.7010 h1         1 8WG       0.037700
     35 H7          -1.4570     0.9030     2.5820 h1         1 8WG       0.037700
     36 H9           1.7030     1.4260     2.6260 h1         1 8WG       0.053950
     37 H10          1.3050    -0.1990     3.2910 h1         1 8WG       0.053950
     38 H11          2.0030    -1.3340     1.1580 h1         1 8WG       0.101700
     39 H12          0.8840     0.0350    -0.6320 h1         1 8WG       0.053950
     40 H13          1.4360     1.5750     0.1190 h1         1 8WG       0.053950
     41 H14          4.1010     0.4830     1.7860 hn         1 8WG       0.332500
     42 H15          6.6270    -0.9250    -1.8120 h4         1 8WG       0.185000
     43 H16          9.2140     0.9310    -1.6920 h1         1 8WG       0.111700
     44 H17         11.3520     0.0660    -0.6860 hc         1 8WG       0.089200
     45 H18         10.3940    -0.9130     0.5310 hc         1 8WG       0.089200
     46 H19          9.2820    -2.1730    -1.3480 hc         1 8WG       0.089200
     47 H20         10.2330    -1.1970    -2.5730 hc         1 8WG       0.089200
     48 H21         -2.1680     3.1040    -0.2850 h4         1 8WG       0.034100
     49 H22         -5.3900    -3.0890    -1.7590 ha         1 8WG       0.123000
     50 H23         -7.4440    -3.8520    -0.5870 ha         1 8WG       0.132000
     51 H5          -2.5210    -1.1530     0.4400 h4         1 8WG       0.157000
@<TRIPOS>BOND
     1     1     2 ar  
     2     1     7 1   
     3     1    29 ar  
     4     2     3 ar  
     5     2    30 1   
     6     3     4 ar  
     7     3    31 1   
     8     4     5 1   
     9     4    28 ar  
    10     5     8 1   
    11     5    32 1   
    12     5    33 1   
    13     6     8 1   
    14     6     9 2   
    15     6    51 1   
    16     8    27 1   
    17     9    10 1   
    18     9    26 1   
    19    10    11 1   
    20    10    34 1   
    21    10    35 1   
    22    11    12 1   
    23    11    14 1   
    24    12    13 1   
    25    12    36 1   
    26    12    37 1   
    27    13    14 1   
    28    13    15 1   
    29    13    38 1   
    30    14    39 1   
    31    14    40 1   
    32    15    16 1   
    33    15    41 1   
    34    16    17 2   
    35    16    18 1   
    36    18    19 2   
    37    18    22 1   
    38    19    20 1   
    39    19    42 1   
    40    20    21 1   
    41    20    23 1   
    42    21    22 2   
    43    23    24 1   
    44    23    25 1   
    45    23    43 1   
    46    24    25 1   
    47    24    44 1   
    48    24    45 1   
    49    25    46 1   
    50    25    47 1   
    51    26    27 2   
    52    26    48 1   
    53    28    29 ar  
    54    28    49 1   
    55    29    50 1   
@<TRIPOS>SUBSTRUCTURE
     1 8WG         1 TEMP              0 ****  ****    0 ROOT
