@<TRIPOS>MOLECULE
8WG
   51    55     1     0     0
SMALL
abcg2


@<TRIPOS>ATOM
      1 C2          -8.1650     0.3860     0.3160 ca         1 8WG       0.131000
      2 C3          -7.5300     1.1050    -0.6850 ca         1 8WG      -0.108000
      3 C4          -6.3700     0.5940    -1.2480 ca         1 8WG      -0.075500
      4 C5          -5.8440    -0.6220    -0.8220 ca         1 8WG      -0.117300
      5 C6          -4.5640    -1.1510    -1.4130 c3         1 8WG       0.136900
      6 C8          -2.6490    -1.1620     0.1990 cc         1 8WG      -0.140000
      7 CL1         -9.6170     1.0150     1.0240 cl         1 8WG      -0.201000
      8 N7          -3.4000    -0.5900    -0.7590 na         1 8WG       0.128800
      9 C9          -1.7220    -0.2230     0.5970 cd         1 8WG      -0.208300
     10 C10         -0.6190    -0.3740     1.5910 c3         1 8WG       0.252100
     11 N11          0.4020    -1.2750     1.1050 nq         1 8WG      -0.707600
     12 C12          1.6330    -1.3910     1.8880 cy         1 8WG       0.126800
     13 C13          2.4150    -1.4820     0.5710 cy         1 8WG       0.080700
     14 C14          1.1620    -0.8640    -0.0780 cy         1 8WG       0.126800
     15 N15          3.6520    -0.7670     0.5030 ns         1 8WG      -0.479900
     16 C16          4.6870    -1.1170    -0.2770 c          1 8WG       0.550600
     17 O17          4.7200    -2.1140    -0.9850 o          1 8WG      -0.606100
     18 C18          5.8330    -0.1920    -0.2240 cc         1 8WG       0.125500
     19 C19          7.0200    -0.2860    -0.9060 cd         1 8WG      -0.130000
     20 N20          7.7070     0.7900    -0.5030 na         1 8WG       0.143800
     21 N21          7.0030     1.5100     0.3630 nd         1 8WG      -0.185800
     22 N22          5.8770     0.9250     0.5360 nc         1 8WG      -0.357000
     23 C23          8.9970     1.2340    -0.9390 cx         1 8WG       0.002300
     24 C24         10.0930     1.3250     0.0690 cx         1 8WG      -0.120400
     25 C25         10.1140     0.2460    -0.9670 cx         1 8WG      -0.120400
     26 C26         -2.0180     0.8940    -0.2020 cd         1 8WG       0.245900
     27 N27         -3.0360     0.6620    -1.0120 nc         1 8WG      -0.529800
     28 C28         -6.5020    -1.3230     0.1820 ca         1 8WG      -0.075500
     29 C29         -7.6640    -0.8280     0.7570 ca         1 8WG      -0.108000
     30 H1          -7.9320     2.0500    -1.0240 ha         1 8WG       0.132000
     31 H2          -5.8740     1.1550    -2.0290 ha         1 8WG       0.123000
     32 H3          -4.5110    -2.2340    -1.3080 h1         1 8WG       0.070700
     33 H4          -4.5000    -0.9200    -2.4760 h1         1 8WG       0.070700
     34 H6          -0.2040     0.6230     1.8150 h1         1 8WG       0.037700
     35 H7          -1.0020    -0.7710     2.5360 h1         1 8WG       0.037700
     36 H9           1.8880    -0.4720     2.4350 h1         1 8WG       0.053950
     37 H10          1.6810    -2.2350     2.5790 h1         1 8WG       0.053950
     38 H11          2.5750    -2.5100     0.2530 h1         1 8WG       0.101700
     39 H12          0.8180    -1.2690    -1.0320 h1         1 8WG       0.053950
     40 H13          1.2650     0.2270    -0.1730 h1         1 8WG       0.053950
     41 H14          3.7150     0.1100     1.0000 hn         1 8WG       0.332500
     42 H15          7.4060    -1.0020    -1.6110 h4         1 8WG       0.185000
     43 H16          8.9470     1.9810    -1.7220 h1         1 8WG       0.111700
     44 H17         10.7780     2.1560    -0.0240 hc         1 8WG       0.089200
     45 H18          9.8630     1.0390     1.0870 hc         1 8WG       0.089200
     46 H19          9.9090    -0.7670    -0.6440 hc         1 8WG       0.089200
     47 H20         10.8120     0.3220    -1.7900 hc         1 8WG       0.089200
     48 H21         -1.5180     1.8520    -0.2120 h4         1 8WG       0.034100
     49 H22         -6.1120    -2.2750     0.5230 ha         1 8WG       0.123000
     50 H23         -8.1700    -1.3850     1.5340 ha         1 8WG       0.132000
     51 H5          -2.8190    -2.1770     0.5240 h4         1 8WG       0.157000
@<TRIPOS>BOND
     1     1     2 ar  
     2     1     7 1   
     3     1    29 ar  
     4     2     3 ar  
     5     2    30 1   
     6     3     4 ar  
     7     3    31 1   
     8     4     5 1   
     9     4    28 ar  
    10     5     8 1   
    11     5    32 1   
    12     5    33 1   
    13     6     8 1   
    14     6     9 2   
    15     6    51 1   
    16     8    27 1   
    17     9    10 1   
    18     9    26 1   
    19    10    11 1   
    20    10    34 1   
    21    10    35 1   
    22    11    12 1   
    23    11    14 1   
    24    12    13 1   
    25    12    36 1   
    26    12    37 1   
    27    13    14 1   
    28    13    15 1   
    29    13    38 1   
    30    14    39 1   
    31    14    40 1   
    32    15    16 1   
    33    15    41 1   
    34    16    17 2   
    35    16    18 1   
    36    18    19 2   
    37    18    22 1   
    38    19    20 1   
    39    19    42 1   
    40    20    21 1   
    41    20    23 1   
    42    21    22 2   
    43    23    24 1   
    44    23    25 1   
    45    23    43 1   
    46    24    25 1   
    47    24    44 1   
    48    24    45 1   
    49    25    46 1   
    50    25    47 1   
    51    26    27 2   
    52    26    48 1   
    53    28    29 ar  
    54    28    49 1   
    55    29    50 1   
@<TRIPOS>SUBSTRUCTURE
     1 8WG         1 TEMP              0 ****  ****    0 ROOT
