@<TRIPOS>MOLECULE
8WH
   52    56     1     0     0
SMALL
abcg2


@<TRIPOS>ATOM
      1 OAX          3.4850    -3.1920     1.5770 o          1 8WH      -0.719000
      2 CBB          3.2560    -2.5070     0.5620 c          1 8WH       0.712600
      3 OBC          2.8050    -2.9100    -0.5280 o          1 8WH      -0.719000
      4 CBA          3.5680    -1.0180     0.6600 ca         1 8WH      -0.141600
      5 CAZ          3.2390    -0.1580    -0.3800 ca         1 8WH      -0.059000
      6 CBF          4.1980    -0.4920     1.7880 ca         1 8WH      -0.069000
      7 CBE          4.4960     0.8600     1.8650 ca         1 8WH      -0.149000
      8 CBD          4.1540     1.7100     0.8200 ca         1 8WH      -0.120000
      9 CAY          3.5220     1.2030    -0.3080 ca         1 8WH      -0.165300
     10 CAW          3.1210     2.1170    -1.4370 c3         1 8WH       0.134900
     11 NAV          1.6810     2.1260    -1.6130 na         1 8WH       0.132800
     12 CAU          0.7550     2.6660    -0.8040 cc         1 8WH      -0.196000
     13 NAR          1.1120     1.4210    -2.5750 nc         1 8WH      -0.207800
     14 NAQ         -0.1640     1.4910    -2.4200 nd         1 8WH      -0.347000
     15 CAP         -0.4390     2.2500    -1.3340 cd         1 8WH       0.260500
     16 CAO         -1.7990     2.5180    -0.8500 ca         1 8WH      -0.117500
     17 CAM         -2.5440     1.4720    -0.2610 ca         1 8WH       0.279400
     18 NAK         -1.9360     0.2550    -0.1530 ne         1 8WH      -0.696100
     19 CAT         -2.3460     3.7850    -0.9450 ca         1 8WH      -0.054000
     20 CAS         -3.6330     4.0630    -0.4810 ca         1 8WH      -0.174000
     21 CAN         -4.3760     3.0480     0.0810 ca         1 8WH      -0.027000
     22 CAL         -3.8450     1.7600     0.1940 ca         1 8WH      -0.268600
     23 CAJ         -4.6250     0.6870     0.7990 c          1 8WH       0.605700
     24 OAI         -5.7520     0.8390     1.2300 o          1 8WH      -0.557100
     25 CAG         -3.9770    -0.6770     0.8700 c6         1 8WH      -0.288700
     26 CAH         -2.5600    -0.7510     0.3740 c2         1 8WH       0.706200
     27 NAE         -1.9170    -1.9230     0.4890 nh         1 8WH      -0.732600
     28 CAF         -2.4980    -3.1600     0.9770 c6         1 8WH       0.179800
     29 CAC         -2.4510    -4.2070    -0.1260 c6         1 8WH       0.132100
     30 OAB         -1.1400    -4.4000    -0.6010 os         1 8WH      -0.436000
     31 CAA         -0.5810    -3.1970    -1.0870 c6         1 8WH       0.132100
     32 CAD         -0.5670    -2.1160    -0.0200 c6         1 8WH       0.179800
     33 H2           2.7480    -0.5610    -1.2580 ha         1 8WH       0.140000
     34 H3           4.4590    -1.1490     2.6070 ha         1 8WH       0.130000
     35 H4           4.9880     1.2580     2.7430 ha         1 8WH       0.090000
     36 H5           4.3800     2.7680     0.8850 ha         1 8WH       0.082000
     37 H6           3.4540     3.1380    -1.2540 h1         1 8WH       0.062200
     38 H7           3.5500     1.7940    -2.3850 h1         1 8WH       0.062200
     39 H8           0.9980     3.2620     0.0580 h4         1 8WH       0.164000
     40 H9          -1.7600     4.5780    -1.3950 ha         1 8WH       0.109000
     41 H10         -4.0380     5.0620    -0.5670 ha         1 8WH       0.108000
     42 H11         -5.3780     3.2420     0.4420 ha         1 8WH       0.119000
     43 H12         -4.0390    -1.0170     1.9070 hc         1 8WH       0.088200
     44 H13         -4.6060    -1.3630     0.2940 hc         1 8WH       0.088200
     45 H14         -1.9210    -3.5010     1.8420 h1         1 8WH       0.078450
     46 H15         -3.5250    -3.0280     1.3050 h1         1 8WH       0.078450
     47 H16         -2.8060    -5.1640     0.2590 h1         1 8WH       0.058200
     48 H17         -3.1210    -3.8990    -0.9410 h1         1 8WH       0.058200
     49 H18          0.4420    -3.4100    -1.3930 h1         1 8WH       0.058200
     50 H19         -1.1420    -2.8380    -1.9620 h1         1 8WH       0.058200
     51 H20         -0.1900    -1.1820    -0.4270 h1         1 8WH       0.078450
     52 H21          0.0810    -2.4170     0.8080 h1         1 8WH       0.078450
@<TRIPOS>BOND
     1     1     2 1   
     2     2     3 1   
     3     2     4 1   
     4     4     5 ar  
     5     4     6 ar  
     6     5     9 ar  
     7     5    33 1   
     8     6     7 ar  
     9     6    34 1   
    10     7     8 ar  
    11     7    35 1   
    12     8     9 ar  
    13     8    36 1   
    14     9    10 1   
    15    10    11 1   
    16    10    37 1   
    17    10    38 1   
    18    11    12 1   
    19    11    13 1   
    20    12    15 2   
    21    12    39 1   
    22    13    14 2   
    23    14    15 1   
    24    15    16 1   
    25    16    17 ar  
    26    16    19 ar  
    27    17    18 1   
    28    17    22 ar  
    29    18    26 2   
    30    19    20 ar  
    31    19    40 1   
    32    20    21 ar  
    33    20    41 1   
    34    21    22 ar  
    35    21    42 1   
    36    22    23 1   
    37    23    24 2   
    38    23    25 1   
    39    25    26 1   
    40    25    43 1   
    41    25    44 1   
    42    26    27 1   
    43    27    28 1   
    44    27    32 1   
    45    28    29 1   
    46    28    45 1   
    47    28    46 1   
    48    29    30 1   
    49    29    47 1   
    50    29    48 1   
    51    30    31 1   
    52    31    32 1   
    53    31    49 1   
    54    31    50 1   
    55    32    51 1   
    56    32    52 1   
@<TRIPOS>SUBSTRUCTURE
     1 8WH         1 TEMP              0 ****  ****    0 ROOT
