@<TRIPOS>MOLECULE
8WH
   52    56     1     0     0
SMALL
No Charge or Current Charge


@<TRIPOS>ATOM
      1 OAX          6.3160     0.3730     3.3390 o          1 8WH      -0.719000
      2 CBB          5.4700     0.0440     2.5200 c          1 8WH       0.712600
      3 OBC          4.7310    -0.9180     2.6810 o          1 8WH      -0.719000
      4 CBA          5.3330     0.8620     1.2460 ca         1 8WH      -0.141600
      5 CAZ          4.3480     0.5400     0.2820 ca         1 8WH      -0.059000
      6 CBF          6.1880     1.9600     0.9980 ca         1 8WH      -0.069000
      7 CBE          6.0610     2.7120    -0.1820 ca         1 8WH      -0.149000
      8 CBD          5.0820     2.3810    -1.1290 ca         1 8WH      -0.120000
      9 CAY          4.2160     1.2960    -0.9020 ca         1 8WH      -0.165300
     10 CAW          3.1500     0.9410    -1.9400 c3         1 8WH       0.134900
     11 NAV          1.8050     0.7440    -1.3740 na         1 8WH       0.132800
     12 CAU          0.9660     1.7070    -0.8780 cc         1 8WH      -0.196000
     13 NAR          1.2400    -0.4910    -1.3130 nc         1 8WH      -0.207800
     14 NAQ          0.0600    -0.3290    -0.7780 nd         1 8WH      -0.347000
     15 CAP         -0.1490     1.0090    -0.4890 cd         1 8WH       0.260500
     16 CAO         -1.3840     1.5850     0.1180 ca         1 8WH      -0.117500
     17 CAM         -2.5100     0.8100     0.5240 ca         1 8WH       0.279400
     18 NAK         -2.5340    -0.6000     0.4490 ne         1 8WH      -0.696100
     19 CAT         -1.4470     2.9890     0.2980 ca         1 8WH      -0.054000
     20 CAS         -2.5720     3.6030     0.8700 ca         1 8WH      -0.174000
     21 CAN         -3.6680     2.8330     1.2690 ca         1 8WH      -0.027000
     22 CAL         -3.6340     1.4430     1.0800 ca         1 8WH      -0.268600
     23 CAJ         -4.7670     0.5790     1.4950 c          1 8WH       0.605700
     24 OAI         -5.3670     0.7430     2.5490 o          1 8WH      -0.557100
     25 CAG         -4.9540    -0.6410     0.6370 c6         1 8WH      -0.288700
     26 CAH         -3.6160    -1.3070     0.5530 c2         1 8WH       0.706200
     27 NAE         -3.5530    -2.6930     0.4150 nh         1 8WH      -0.732600
     28 CAF         -4.6040    -3.4410    -0.3530 c6         1 8WH       0.179800
     29 CAC         -4.1880    -3.5560    -1.8510 c6         1 8WH       0.132100
     30 OAB         -2.8890    -4.1920    -1.9650 os         1 8WH      -0.436000
     31 CAA         -1.8440    -3.4950    -1.2380 c6         1 8WH       0.132100
     32 CAD         -2.2250    -3.3810     0.2680 c6         1 8WH       0.179800
     33 H2           3.6820    -0.3040     0.4530 ha         1 8WH       0.140000
     34 H3           6.9560     2.2350     1.7190 ha         1 8WH       0.130000
     35 H4           6.7270     3.5530    -0.3610 ha         1 8WH       0.090000
     36 H5           4.9960     2.9720    -2.0390 ha         1 8WH       0.082000
     37 H6           3.0850     1.7360    -2.6920 h1         1 8WH       0.062200
     38 H7           3.4520     0.0230    -2.4610 h1         1 8WH       0.062200
     39 H8           1.2260     2.7550    -0.8410 h4         1 8WH       0.164000
     40 H9          -0.6180     3.6260     0.0020 ha         1 8WH       0.109000
     41 H10         -2.5910     4.6830     1.0050 ha         1 8WH       0.108000
     42 H11         -4.5390     3.3130     1.7150 ha         1 8WH       0.119000
     43 H12         -5.7350    -1.2800     1.0630 hc         1 8WH       0.088200
     44 H13         -5.1890    -0.3160    -0.3830 hc         1 8WH       0.088200
     45 H14         -4.7010    -4.4610     0.0480 h1         1 8WH       0.078450
     46 H15         -5.6010    -2.9870    -0.2790 h1         1 8WH       0.078450
     47 H16         -4.9290    -4.1530    -2.4000 h1         1 8WH       0.058200
     48 H17         -4.1460    -2.5570    -2.3080 h1         1 8WH       0.058200
     49 H18         -0.9010    -4.0480    -1.3450 h1         1 8WH       0.058200
     50 H19         -1.7050    -2.4940    -1.6700 h1         1 8WH       0.058200
     51 H20         -1.4270    -2.8690     0.8260 h1         1 8WH       0.078450
     52 H21         -2.2850    -4.3990     0.6800 h1         1 8WH       0.078450
@<TRIPOS>BOND
     1     1     2 1   
     2     2     3 1   
     3     2     4 1   
     4     4     5 ar  
     5     4     6 ar  
     6     5     9 ar  
     7     5    33 1   
     8     6     7 ar  
     9     6    34 1   
    10     7     8 ar  
    11     7    35 1   
    12     8     9 ar  
    13     8    36 1   
    14     9    10 1   
    15    10    11 1   
    16    10    37 1   
    17    10    38 1   
    18    11    12 1   
    19    11    13 1   
    20    12    15 2   
    21    12    39 1   
    22    13    14 2   
    23    14    15 1   
    24    15    16 1   
    25    16    17 ar  
    26    16    19 ar  
    27    17    18 1   
    28    17    22 ar  
    29    18    26 2   
    30    19    20 ar  
    31    19    40 1   
    32    20    21 ar  
    33    20    41 1   
    34    21    22 ar  
    35    21    42 1   
    36    22    23 1   
    37    23    24 2   
    38    23    25 1   
    39    25    26 1   
    40    25    43 1   
    41    25    44 1   
    42    26    27 1   
    43    27    28 1   
    44    27    32 1   
    45    28    29 1   
    46    28    45 1   
    47    28    46 1   
    48    29    30 1   
    49    29    47 1   
    50    29    48 1   
    51    30    31 1   
    52    31    32 1   
    53    31    49 1   
    54    31    50 1   
    55    32    51 1   
    56    32    52 1   
@<TRIPOS>SUBSTRUCTURE
     1 8WH         1 TEMP              0 ****  ****    0 ROOT
