@<TRIPOS>MOLECULE
8WJ
   60    63     1     0     0
SMALL
abcg2


@<TRIPOS>ATOM
      1 N3           3.2480    -1.2060    -0.4110 ns         1 8WJ      -0.478400
      2 C4           3.9680    -2.3690    -0.2280 cc         1 8WJ       0.569300
      3 C6           4.6020    -4.3290     0.4940 cd         1 8WJ       0.306900
      4 C7           5.6310    -4.1170    -0.3590 cc         1 8WJ      -0.268000
      5 C13          2.1510     3.4560    -0.8140 c6         1 8WJ      -0.073400
      6 C15          2.5030     5.7830     0.0950 c6         1 8WJ      -0.075400
      7 C17          2.4570     3.8110     1.6550 c6         1 8WJ      -0.073400
      8 C20         -1.9280     0.5450     1.0280 cc         1 8WJ      -0.259000
      9 C21         -2.6200     0.4270    -0.1960 cc         1 8WJ      -0.137100
     10 C22         -1.9750     0.3650    -1.3830 cd         1 8WJ      -0.204200
     11 C28         -4.7100    -1.2940     0.5270 c5         1 8WJ      -0.275700
     12 C2           2.0140    -0.9250     0.1010 c          1 8WJ       0.596100
     13 N5           3.6630    -3.3360     0.5680 nd         1 8WJ      -0.653000
     14 S8           5.4320    -2.5950    -1.1350 ss         1 8WJ      -0.086400
     15 C9           1.5600     0.5040    -0.2000 c3         1 8WJ      -0.000300
     16 C11          2.1950     1.4860     0.7900 c3         1 8WJ      -0.081400
     17 C12          1.7910     2.9460     0.5830 c6         1 8WJ      -0.062700
     18 C14          1.8290     4.9390    -0.9800 c6         1 8WJ      -0.073400
     19 C16          2.1260     5.2900     1.4870 c6         1 8WJ      -0.073400
     20 N18          0.1020     0.5330    -0.2050 n          1 8WJ      -0.246000
     21 C19         -0.5750     0.5800     0.9680 cd         1 8WJ      -0.005400
     22 C23         -0.5340     0.3920    -1.4390 c          1 8WJ       0.545200
     23 O24          0.1110     0.2870    -2.4740 o          1 8WJ      -0.552000
     24 O27         -4.8750     1.3400     0.7910 o          1 8WJ      -0.515000
     25 O26         -4.8990     0.3810    -1.5320 o          1 8WJ      -0.515000
     26 C29         -6.2340    -1.5680     0.5400 c5         1 8WJ      -0.051400
     27 C30         -6.4360    -2.6700    -0.4970 c5         1 8WJ      -0.076900
     28 C31         -5.1520    -3.4860    -0.3980 c5         1 8WJ      -0.076900
     29 C32         -4.0650    -2.4140    -0.3090 c5         1 8WJ      -0.051400
     30 H1           3.6690    -0.5070    -1.0070 hn         1 8WJ       0.334500
     31 H2           4.4870    -5.2120     1.1050 h4         1 8WJ       0.046100
     32 H3           6.4760    -4.7510    -0.5740 h4         1 8WJ       0.165000
     33 H4           3.2210     3.2930    -0.9870 hc         1 8WJ       0.039450
     34 H5           1.6240     2.8900    -1.5870 hc         1 8WJ       0.039450
     35 H6           3.5910     5.7240    -0.0280 hc         1 8WJ       0.040200
     36 H7           2.2340     6.8350    -0.0240 hc         1 8WJ       0.040200
     37 H8           2.1510     3.4680     2.6470 hc         1 8WJ       0.039450
     38 H9           3.5440     3.6750     1.6000 hc         1 8WJ       0.039450
     39 H10         -2.4270     0.6080     1.9830 ha         1 8WJ       0.216000
     40 H11         -2.5020     0.2680    -2.3220 ha         1 8WJ       0.236000
     41 H12         -4.3070    -1.2550     1.5410 h1         1 8WJ       0.100700
     42 H13          1.8750     0.7750    -1.2070 h1         1 8WJ       0.107700
     43 H14          1.9940     1.1830     1.8210 hc         1 8WJ       0.056200
     44 H15          3.2790     1.4010     0.6710 hc         1 8WJ       0.056200
     45 H16          0.7050     3.0420     0.7130 hc         1 8WJ       0.057700
     46 H17          2.1330     5.2730    -1.9740 hc         1 8WJ       0.043200
     47 H18          0.7440     5.0800    -0.9240 hc         1 8WJ       0.043200
     48 H19          2.6420     5.8750     2.2530 hc         1 8WJ       0.043200
     49 H20          1.0540     5.4430     1.6490 hc         1 8WJ       0.043200
     50 H21          0.0150     0.6660     1.8670 h4         1 8WJ       0.211000
     51 H22         -6.4970    -1.9270     1.5350 hc         1 8WJ       0.057700
     52 H23         -6.8480    -0.6860     0.3550 hc         1 8WJ       0.057700
     53 H24         -7.3380    -3.2530    -0.3100 hc         1 8WJ       0.052700
     54 H25         -6.5240    -2.2370    -1.4960 hc         1 8WJ       0.052700
     55 H26         -5.1620    -4.0930     0.5110 hc         1 8WJ       0.052700
     56 H27         -5.0000    -4.1590    -1.2410 hc         1 8WJ       0.052700
     57 H28         -3.8260    -2.0670    -1.3160 hc         1 8WJ       0.057700
     58 H29         -3.1380    -2.7660     0.1400 hc         1 8WJ       0.057700
     59 S25         -4.4040     0.3330    -0.1580 sy         1 8WJ       1.022100
     60 O1           1.3460    -1.6910     0.7510 o          1 8WJ      -0.513100
@<TRIPOS>BOND
     1     1     2 1   
     2     1    12 1   
     3     1    30 1   
     4     2    13 2   
     5     2    14 1   
     6     3     4 2   
     7     3    13 1   
     8     3    31 1   
     9     4    14 1   
    10     4    32 1   
    11     5    17 1   
    12     5    18 1   
    13     5    33 1   
    14     5    34 1   
    15     6    18 1   
    16     6    19 1   
    17     6    35 1   
    18     6    36 1   
    19     7    17 1   
    20     7    19 1   
    21     7    37 1   
    22     7    38 1   
    23     8     9 1   
    24     8    21 2   
    25     8    39 1   
    26     9    10 2   
    27     9    59 1   
    28    10    22 1   
    29    10    40 1   
    30    11    26 1   
    31    11    29 1   
    32    11    41 1   
    33    11    59 1   
    34    12    15 1   
    35    12    60 2   
    36    15    16 1   
    37    15    20 1   
    38    15    42 1   
    39    16    17 1   
    40    16    43 1   
    41    16    44 1   
    42    17    45 1   
    43    18    46 1   
    44    18    47 1   
    45    19    48 1   
    46    19    49 1   
    47    20    21 1   
    48    20    22 1   
    49    21    50 1   
    50    22    23 2   
    51    24    59 2   
    52    25    59 2   
    53    26    27 1   
    54    26    51 1   
    55    26    52 1   
    56    27    28 1   
    57    27    53 1   
    58    27    54 1   
    59    28    29 1   
    60    28    55 1   
    61    28    56 1   
    62    29    57 1   
    63    29    58 1   
@<TRIPOS>SUBSTRUCTURE
     1 8WJ         1 TEMP              0 ****  ****    0 ROOT
