@<TRIPOS>MOLECULE
8WJ
   60    63     1     0     0
SMALL
No Charge or Current Charge


@<TRIPOS>ATOM
      1 N3           3.4930    -1.3170    -0.1650 ns         1 8WJ      -0.478400
      2 C4           4.2960    -2.4240    -0.0190 cc         1 8WJ       0.569300
      3 C6           4.9060    -4.4980     0.5030 cd         1 8WJ       0.306900
      4 C7           6.1060    -4.0330     0.0210 cc         1 8WJ      -0.268000
      5 C13          2.1210     3.3380    -0.9060 c6         1 8WJ      -0.073400
      6 C15          2.3040     5.7350    -0.0360 c6         1 8WJ      -0.075400
      7 C17          2.4710     3.7670     1.5830 c6         1 8WJ      -0.073400
      8 C20         -1.9330     0.3550     1.2170 cc         1 8WJ      -0.259000
      9 C21         -2.7600     0.5590     0.0550 cc         1 8WJ      -0.137100
     10 C22         -2.0810     0.6640    -1.1490 cd         1 8WJ      -0.204200
     11 C28         -4.8430    -1.0940     0.2450 c5         1 8WJ      -0.275700
     12 C2           2.1570    -1.1540     0.1440 c          1 8WJ       0.596100
     13 N5           3.8720    -3.5730     0.4790 nd         1 8WJ      -0.653000
     14 S8           5.9760    -2.3770    -0.4920 ss         1 8WJ      -0.086400
     15 C9           1.6050     0.2690    -0.1500 c3         1 8WJ      -0.000300
     16 C11          2.2890     1.3480     0.7490 c3         1 8WJ      -0.081400
     17 C12          1.8210     2.8230     0.5320 c6         1 8WJ      -0.062700
     18 C14          1.6610     4.8050    -1.0930 c6         1 8WJ      -0.073400
     19 C16          2.0090     5.2330     1.3980 c6         1 8WJ      -0.073400
     20 N18          0.1040     0.3460    -0.0990 n          1 8WJ      -0.246000
     21 C19         -0.5630     0.2440     1.1230 cd         1 8WJ      -0.005400
     22 C23         -0.6190     0.5500    -1.3010 c          1 8WJ       0.545200
     23 O24         -0.0850     0.6260    -2.4000 o          1 8WJ      -0.552000
     24 O27         -4.9470     1.3700     1.3990 o          1 8WJ      -0.515000
     25 O26         -5.0660     1.2460    -1.1720 o          1 8WJ      -0.515000
     26 C29         -6.3550    -1.4230     0.3070 c5         1 8WJ      -0.051400
     27 C30         -6.3120    -2.9670     0.1540 c5         1 8WJ      -0.076900
     28 C31         -5.1260    -3.2350    -0.8340 c5         1 8WJ      -0.076900
     29 C32         -4.4560    -1.8470    -1.0590 c5         1 8WJ      -0.051400
     30 H1           3.9400    -0.4990    -0.5520 hn         1 8WJ       0.334500
     31 H2           4.7240    -5.4960     0.8840 h4         1 8WJ       0.046100
     32 H3           7.0480    -4.5580    -0.0610 h4         1 8WJ       0.165000
     33 H4           3.1980     3.2620    -1.1140 hc         1 8WJ       0.039450
     34 H5           1.6160     2.7130    -1.6520 hc         1 8WJ       0.039450
     35 H6           3.3900     5.7830    -0.1960 hc         1 8WJ       0.040200
     36 H7           1.9240     6.7590    -0.1590 hc         1 8WJ       0.040200
     37 H8           2.2150     3.4310     2.5980 hc         1 8WJ       0.039450
     38 H9           3.5660     3.7150     1.5060 hc         1 8WJ       0.039450
     39 H10         -2.4140     0.2810     2.1920 ha         1 8WJ       0.216000
     40 H11         -2.5990     0.8340    -2.0860 ha         1 8WJ       0.236000
     41 H12         -4.2950    -1.4540     1.1250 h1         1 8WJ       0.100700
     42 H13          1.9320     0.4730    -1.1760 h1         1 8WJ       0.107700
     43 H14          2.1340     1.0730     1.8000 hc         1 8WJ       0.056200
     44 H15          3.3740     1.3010     0.5980 hc         1 8WJ       0.056200
     45 H16          0.7330     2.8430     0.6900 hc         1 8WJ       0.057700
     46 H17          1.9220     5.1520    -2.1020 hc         1 8WJ       0.043200
     47 H18          0.5660     4.8610    -1.0180 hc         1 8WJ       0.043200
     48 H19          2.5140     5.8780     2.1300 hc         1 8WJ       0.043200
     49 H20          0.9320     5.3110     1.6040 hc         1 8WJ       0.043200
     50 H21          0.0860     0.0710     1.9770 h4         1 8WJ       0.211000
     51 H22         -6.8220    -1.1110     1.2490 hc         1 8WJ       0.057700
     52 H23         -6.9180    -0.9560    -0.5110 hc         1 8WJ       0.057700
     53 H24         -6.1240    -3.4490     1.1210 hc         1 8WJ       0.052700
     54 H25         -7.2610    -3.3680    -0.2190 hc         1 8WJ       0.052700
     55 H26         -4.4170    -3.9500    -0.3990 hc         1 8WJ       0.052700
     56 H27         -5.4700    -3.6680    -1.7800 hc         1 8WJ       0.052700
     57 H28         -4.8620    -1.3600    -1.9540 hc         1 8WJ       0.057700
     58 H29         -3.3720    -1.9330    -1.2000 hc         1 8WJ       0.057700
     59 S25         -4.5710     0.7510     0.1200 sy         1 8WJ       1.022100
     60 O1           1.4570    -2.0440     0.6050 o          1 8WJ      -0.513100
@<TRIPOS>BOND
     1     1     2 1   
     2     1    12 1   
     3     1    30 1   
     4     2    13 2   
     5     2    14 1   
     6     3     4 2   
     7     3    13 1   
     8     3    31 1   
     9     4    14 1   
    10     4    32 1   
    11     5    17 1   
    12     5    18 1   
    13     5    33 1   
    14     5    34 1   
    15     6    18 1   
    16     6    19 1   
    17     6    35 1   
    18     6    36 1   
    19     7    17 1   
    20     7    19 1   
    21     7    37 1   
    22     7    38 1   
    23     8     9 1   
    24     8    21 2   
    25     8    39 1   
    26     9    10 2   
    27     9    59 1   
    28    10    22 1   
    29    10    40 1   
    30    11    26 1   
    31    11    29 1   
    32    11    41 1   
    33    11    59 1   
    34    12    15 1   
    35    12    60 2   
    36    15    16 1   
    37    15    20 1   
    38    15    42 1   
    39    16    17 1   
    40    16    43 1   
    41    16    44 1   
    42    17    45 1   
    43    18    46 1   
    44    18    47 1   
    45    19    48 1   
    46    19    49 1   
    47    20    21 1   
    48    20    22 1   
    49    21    50 1   
    50    22    23 2   
    51    24    59 2   
    52    25    59 2   
    53    26    27 1   
    54    26    51 1   
    55    26    52 1   
    56    27    28 1   
    57    27    53 1   
    58    27    54 1   
    59    28    29 1   
    60    28    55 1   
    61    28    56 1   
    62    29    57 1   
    63    29    58 1   
@<TRIPOS>SUBSTRUCTURE
     1 8WJ         1 TEMP              0 ****  ****    0 ROOT
