@<TRIPOS>MOLECULE
8WK
   61    65     1     0     0
SMALL
abcg2


@<TRIPOS>ATOM
      1 CAJ          7.7750    -0.7890     1.1820 ca         1 8WK      -0.068500
      2 CAH          9.0380    -0.7050     0.6190 ca         1 8WK      -0.145500
      3 CAZ          9.1510    -0.3730    -0.7170 ca         1 8WK       0.176000
      4 FAD         10.3730    -0.2830    -1.2620 f          1 8WK      -0.173000
      5 CAI          8.0450    -0.1350    -1.5100 ca         1 8WK      -0.145500
      6 CAK          6.7820    -0.2370    -0.9460 ca         1 8WK      -0.068500
      7 CBB          6.6500    -0.5550     0.4000 ca         1 8WK      -0.002200
      8 NBJ          5.3720    -0.6540     0.9890 na         1 8WK       0.234000
      9 NAW          5.1280    -1.5920     1.9270 nc         1 8WK      -0.501800
     10 CAN          3.8910    -1.4230     2.3190 cd         1 8WK       0.323900
     11 CBD          3.2950    -0.3500     1.6270 cd         1 8WK      -0.336600
     12 CBC          2.0110     0.2780     1.6370 c          1 8WK       0.614600
     13 OAB          1.0600    -0.0160     2.3340 o          1 8WK      -0.530000
     14 CBE          4.2870     0.1220     0.7840 cc         1 8WK       0.145400
     15 NAV          4.1880     1.1790    -0.0480 nc         1 8WK      -0.623100
     16 CAO          3.0190     1.7290    -0.0350 cd         1 8WK       0.523800
     17 NBH          1.9500     1.3360     0.7080 n          1 8WK      -0.340300
     18 CAU          0.6980     2.0650     0.5320 c3         1 8WK       0.062000
     19 CBK         -0.1370     1.5640    -0.6590 c6         1 8WK       0.170000
     20 CAR         -1.3150     2.5230    -0.8390 c6         1 8WK      -0.109400
     21 CAP         -2.2770     2.0530    -1.9220 c6         1 8WK       0.101000
     22 OAC          0.6330     1.6280    -1.8450 oh         1 8WK      -0.665000
     23 CAS         -0.6740     0.1470    -0.4410 c6         1 8WK      -0.109400
     24 CAQ         -1.6490    -0.2600    -1.5400 c6         1 8WK       0.101000
     25 NBG         -2.7320     0.7010    -1.6430 n          1 8WK      -0.413800
     26 CAY         -4.0420     0.4310    -1.4740 c          1 8WK       0.608100
     27 OAA         -4.9140     1.2770    -1.6070 o          1 8WK      -0.583100
     28 CAT         -4.4080    -1.0030    -1.1200 c3         1 8WK      -0.177400
     29 CBL         -5.8930    -1.1480    -0.8280 c3         1 8WK       0.057300
     30 CBF         -6.3180    -2.5990    -0.6470 c3         1 8WK       0.155300
     31 FAF         -6.0460    -3.3020    -1.7780 f          1 8WK      -0.120000
     32 FAG         -5.6100    -3.1800     0.3600 f          1 8WK      -0.120000
     33 NBI         -6.3020    -0.4050     0.3450 na         1 8WK       0.132800
     34 NAX         -7.5280     0.1270     0.3750 nc         1 8WK      -0.545800
     35 CBA         -7.6160     0.6530     1.5650 cd         1 8WK       0.482200
     36 FAE         -8.7260     1.2840     1.9220 f          1 8WK      -0.213200
     37 CAL         -6.4690     0.4810     2.3420 cd         1 8WK      -0.254000
     38 CAM         -5.6400    -0.2250     1.5010 cc         1 8WK      -0.136000
     39 H1           7.6700    -1.0350     2.2290 ha         1 8WK       0.139500
     40 H2           9.9200    -0.8860     1.2180 ha         1 8WK       0.138500
     41 H3           8.1600     0.1110    -2.5570 ha         1 8WK       0.138500
     42 H4           5.9110    -0.0760    -1.5650 ha         1 8WK       0.139500
     43 H5           3.4600    -2.0680     3.0690 h4         1 8WK       0.057100
     44 H6           2.8520     2.5970    -0.6590 h5         1 8WK       0.064800
     45 H7           0.1260     2.0050     1.4550 h1         1 8WK       0.078200
     46 H8           0.9470     3.1160     0.3740 h1         1 8WK       0.078200
     47 H9          -1.8530     2.6110     0.1080 hc         1 8WK       0.064700
     48 H10         -0.9470     3.5200    -1.0930 hc         1 8WK       0.064700
     49 H11         -3.1320     2.7190    -1.9760 h1         1 8WK       0.062950
     50 H12         -1.7870     2.0680    -2.8990 h1         1 8WK       0.062950
     51 H13          1.1160     0.8040    -1.9640 ho         1 8WK       0.449000
     52 H14          0.1430    -0.5800    -0.4150 hc         1 8WK       0.064700
     53 H15         -1.1780     0.0920     0.5270 hc         1 8WK       0.064700
     54 H16         -1.1380    -0.3160    -2.5050 h1         1 8WK       0.062950
     55 H17         -2.0260    -1.2570    -1.3360 h1         1 8WK       0.062950
     56 H18         -4.1590    -1.6500    -1.9650 hc         1 8WK       0.082200
     57 H19         -3.8070    -1.3680    -0.2860 hc         1 8WK       0.082200
     58 H20         -6.4730    -0.7460    -1.6600 h1         1 8WK       0.125700
     59 H21         -7.3810    -2.6930    -0.4220 h2         1 8WK       0.089700
     60 H22         -6.2710     0.8150     3.3460 ha         1 8WK       0.161000
     61 H23         -4.6410    -0.5900     1.6700 h4         1 8WK       0.158000
@<TRIPOS>BOND
     1     1     2 ar  
     2     1     7 ar  
     3     1    39 1   
     4     2     3 ar  
     5     2    40 1   
     6     3     4 1   
     7     3     5 ar  
     8     5     6 ar  
     9     5    41 1   
    10     6     7 ar  
    11     6    42 1   
    12     7     8 1   
    13     8     9 1   
    14     8    14 1   
    15     9    10 2   
    16    10    11 1   
    17    10    43 1   
    18    11    12 1   
    19    11    14 2   
    20    12    13 2   
    21    12    17 1   
    22    14    15 1   
    23    15    16 2   
    24    16    17 1   
    25    16    44 1   
    26    17    18 1   
    27    18    19 1   
    28    18    45 1   
    29    18    46 1   
    30    19    20 1   
    31    19    22 1   
    32    19    23 1   
    33    20    21 1   
    34    20    47 1   
    35    20    48 1   
    36    21    25 1   
    37    21    49 1   
    38    21    50 1   
    39    22    51 1   
    40    23    24 1   
    41    23    52 1   
    42    23    53 1   
    43    24    25 1   
    44    24    54 1   
    45    24    55 1   
    46    25    26 1   
    47    26    27 2   
    48    26    28 1   
    49    28    29 1   
    50    28    56 1   
    51    28    57 1   
    52    29    30 1   
    53    29    33 1   
    54    29    58 1   
    55    30    31 1   
    56    30    32 1   
    57    30    59 1   
    58    33    34 1   
    59    33    38 1   
    60    34    35 2   
    61    35    36 1   
    62    35    37 1   
    63    37    38 2   
    64    37    60 1   
    65    38    61 1   
@<TRIPOS>SUBSTRUCTURE
     1 8WK         1 TEMP              0 ****  ****    0 ROOT
