@<TRIPOS>MOLECULE
8WK
   61    65     1     0     0
SMALL
No Charge or Current Charge


@<TRIPOS>ATOM
      1 CAJ          7.5300    -0.3000     1.5830 ca         1 8WK      -0.068500
      2 CAH          8.8020    -0.3830     0.9890 ca         1 8WK      -0.145500
      3 CAZ          8.9160    -0.5660    -0.3970 ca         1 8WK       0.176000
      4 FAD         10.1380    -0.6470    -0.9660 f          1 8WK      -0.173000
      5 CAI          7.7660    -0.6690    -1.1940 ca         1 8WK      -0.145500
      6 CAK          6.4920    -0.5860    -0.6030 ca         1 8WK      -0.068500
      7 CBB          6.3650    -0.3970     0.7910 ca         1 8WK      -0.002200
      8 NBJ          5.1000    -0.3180     1.3860 na         1 8WK       0.234000
      9 NAW          4.8040    -1.0830     2.4980 nc         1 8WK      -0.501800
     10 CAN          3.5370    -0.7500     2.7120 cd         1 8WK       0.323900
     11 CBD          3.0460     0.1820     1.7690 cd         1 8WK      -0.336600
     12 CBC          1.7360     0.7920     1.6500 c          1 8WK       0.614600
     13 OAB          0.8180     0.5530     2.4200 o          1 8WK      -0.530000
     14 CBE          4.0460     0.4600     0.9110 cc         1 8WK       0.145400
     15 NAV          3.9410     1.3410    -0.1360 nc         1 8WK      -0.623100
     16 CAO          2.7370     1.9130    -0.2640 cd         1 8WK       0.523800
     17 NBH          1.6400     1.6700     0.5620 n          1 8WK      -0.340300
     18 CAU          0.3600     2.3840     0.3090 c3         1 8WK       0.062000
     19 CBK         -0.5680     1.7620    -0.7890 c6         1 8WK       0.170000
     20 CAR         -1.8230     2.6410    -0.9710 c6         1 8WK      -0.109400
     21 CAP         -2.8190     2.0500    -1.9950 c6         1 8WK       0.101000
     22 OAC          0.1580     1.7110    -2.0240 oh         1 8WK      -0.665000
     23 CAS         -1.0410     0.3440    -0.3930 c6         1 8WK      -0.109400
     24 CAQ         -2.0600    -0.2650    -1.3880 c6         1 8WK       0.101000
     25 NBG         -3.2080     0.6320    -1.7300 n          1 8WK      -0.413800
     26 CAY         -4.3860     0.1310    -2.3440 c          1 8WK       0.608100
     27 OAA         -5.0660     0.8530    -3.0620 o          1 8WK      -0.583100
     28 CAT         -4.8990    -1.2810    -2.0150 c3         1 8WK      -0.177400
     29 CBL         -5.8190    -1.2490    -0.7580 c3         1 8WK       0.057300
     30 CBF         -6.5730    -2.5810    -0.5050 c3         1 8WK       0.155300
     31 FAF         -7.4300    -2.8340    -1.5220 f          1 8WK      -0.120000
     32 FAG         -5.7120    -3.6240    -0.4400 f          1 8WK      -0.120000
     33 NBI         -5.1070    -0.7780     0.4510 na         1 8WK       0.132800
     34 NAX         -5.3700     0.4860     0.9480 nc         1 8WK      -0.545800
     35 CBA         -4.5390     0.5600     1.9640 cd         1 8WK       0.482200
     36 FAE         -4.4240     1.6340     2.7630 f          1 8WK      -0.213200
     37 CAL         -3.7640    -0.5930     2.1490 cd         1 8WK      -0.254000
     38 CAM         -4.1280    -1.4730     1.1700 cc         1 8WK      -0.136000
     39 H1           7.4480    -0.1560     2.6590 ha         1 8WK       0.139500
     40 H2           9.6980    -0.3060     1.6000 ha         1 8WK       0.138500
     41 H3           7.8630    -0.8140    -2.2670 ha         1 8WK       0.138500
     42 H4           5.6050    -0.6720    -1.2270 ha         1 8WK       0.139500
     43 H5           3.0060    -1.1940     3.5450 h4         1 8WK       0.057100
     44 H6           2.5820     2.6250    -1.0660 h5         1 8WK       0.064800
     45 H7          -0.2110     2.4630     1.2440 h1         1 8WK       0.078200
     46 H8           0.5940     3.4140     0.0100 h1         1 8WK       0.078200
     47 H9          -2.3370     2.7550    -0.0070 hc         1 8WK       0.064700
     48 H10         -1.5360     3.6530    -1.2880 hc         1 8WK       0.064700
     49 H11         -3.7180     2.6830    -1.9990 h1         1 8WK       0.062950
     50 H12         -2.3810     2.1100    -3.0020 h1         1 8WK       0.062950
     51 H13          0.5180     0.8020    -2.1090 ho         1 8WK       0.449000
     52 H14         -0.1850    -0.3370    -0.2910 hc         1 8WK       0.064700
     53 H15         -1.5090     0.3870     0.5990 hc         1 8WK       0.064700
     54 H16         -1.5420    -0.5350    -2.3200 h1         1 8WK       0.062950
     55 H17         -2.4130    -1.1990    -0.9370 h1         1 8WK       0.062950
     56 H18         -5.4870    -1.6370    -2.8690 hc         1 8WK       0.082200
     57 H19         -4.0830    -1.9810    -1.8230 hc         1 8WK       0.082200
     58 H20         -6.6010    -0.5040    -0.9590 h1         1 8WK       0.125700
     59 H21         -7.1420    -2.5250     0.4300 h2         1 8WK       0.089700
     60 H22         -3.0180    -0.7450     2.9200 ha         1 8WK       0.161000
     61 H23         -3.7890    -2.4720     0.9260 h4         1 8WK       0.158000
@<TRIPOS>BOND
     1     1     2 ar  
     2     1     7 ar  
     3     1    39 1   
     4     2     3 ar  
     5     2    40 1   
     6     3     4 1   
     7     3     5 ar  
     8     5     6 ar  
     9     5    41 1   
    10     6     7 ar  
    11     6    42 1   
    12     7     8 1   
    13     8     9 1   
    14     8    14 1   
    15     9    10 2   
    16    10    11 1   
    17    10    43 1   
    18    11    12 1   
    19    11    14 2   
    20    12    13 2   
    21    12    17 1   
    22    14    15 1   
    23    15    16 2   
    24    16    17 1   
    25    16    44 1   
    26    17    18 1   
    27    18    19 1   
    28    18    45 1   
    29    18    46 1   
    30    19    20 1   
    31    19    22 1   
    32    19    23 1   
    33    20    21 1   
    34    20    47 1   
    35    20    48 1   
    36    21    25 1   
    37    21    49 1   
    38    21    50 1   
    39    22    51 1   
    40    23    24 1   
    41    23    52 1   
    42    23    53 1   
    43    24    25 1   
    44    24    54 1   
    45    24    55 1   
    46    25    26 1   
    47    26    27 2   
    48    26    28 1   
    49    28    29 1   
    50    28    56 1   
    51    28    57 1   
    52    29    30 1   
    53    29    33 1   
    54    29    58 1   
    55    30    31 1   
    56    30    32 1   
    57    30    59 1   
    58    33    34 1   
    59    33    38 1   
    60    34    35 2   
    61    35    36 1   
    62    35    37 1   
    63    37    38 2   
    64    37    60 1   
    65    38    61 1   
@<TRIPOS>SUBSTRUCTURE
     1 8WK         1 TEMP              0 ****  ****    0 ROOT
