@<TRIPOS>MOLECULE
8WL
   59    62     1     0     0
SMALL
No Charge or Current Charge


@<TRIPOS>ATOM
      1 C1         118.1470   115.5720   145.0330 c3         1 8WL      -0.087100
      2 C2         119.2230   114.8860   145.9100 c3         1 8WL      -0.090000
      3 C3         118.8470   113.4180   146.2240 c3         1 8WL      -0.087100
      4 C4         120.6080   115.0050   145.3100 cc         1 8WL       0.561300
      5 C7         122.6020   115.5650   145.1500 cd         1 8WL       0.483300
      6 C8         123.9870   116.1480   145.3670 c6         1 8WL      -0.094000
      7 C9         124.5610   115.7880   146.7740 c6         1 8WL      -0.093900
      8 C10        124.3430   116.9230   147.8020 c6         1 8WL       0.223300
      9 C12        125.2190   119.2440   148.2670 ca         1 8WL       0.477900
     10 C14        124.3560   120.4860   149.9850 ca         1 8WL       0.250900
     11 C16        126.3860   121.1230   149.1650 ca         1 8WL       0.471900
     12 C18        127.8710   122.9780   150.1300 ca         1 8WL       0.294000
     13 C19        128.3620   124.2000   149.6350 ca         1 8WL      -0.114000
     14 C20        128.8100   125.2080   150.5090 ca         1 8WL      -0.035000
     15 C21        128.7850   124.9990   151.9030 ca         1 8WL      -0.227500
     16 C23        127.8710   127.2590   153.3190 c3         1 8WL      -0.342100
     17 C26        128.3110   123.7710   152.4110 ca         1 8WL      -0.054000
     18 C27        127.8630   122.7660   151.5360 ca         1 8WL       0.185000
     19 C29        126.3430   120.0740   148.2500 ca         1 8WL      -0.455200
     20 C33        125.1240   118.4050   145.8900 c6         1 8WL       0.223300
     21 C34        123.9780   117.6910   145.1340 c6         1 8WL      -0.093900
     22 F28        127.4670   121.5830   152.0660 f          1 8WL      -0.156000
     23 N5         120.9470   114.4720   144.1490 nd         1 8WL      -0.370300
     24 N11        125.0350   118.1760   147.3670 nh         1 8WL      -0.739300
     25 N13        124.2220   119.4440   149.1470 nb         1 8WL      -0.306000
     26 N15        125.3880   121.3450   150.0300 nb         1 8WL      -0.299000
     27 N17        127.4430   122.0160   149.1940 nu         1 8WL      -0.932900
     28 N30        127.4610   119.8050   147.3570 no         1 8WL       0.728200
     29 N35        121.5810   115.6900   145.9730 nc         1 8WL      -0.725000
     30 O6         122.3020   114.8480   144.0290 os         1 8WL      -0.094700
     31 O24        130.2890   127.1730   152.3120 o          1 8WL      -0.513500
     32 O25        129.7140   125.6840   154.3140 o          1 8WL      -0.513500
     33 O31        127.8380   120.7270   146.6250 o          1 8WL      -0.429500
     34 O32        128.0890   118.7560   147.5250 o          1 8WL      -0.429500
     35 S22        129.3540   126.2960   153.0290 sy         1 8WL       1.057500
     36 H1         117.1670   115.5400   145.5250 hc         1 8WL       0.044200
     37 H2         118.4050   116.6230   144.8590 hc         1 8WL       0.044200
     38 H3         118.0570   115.0740   144.0600 hc         1 8WL       0.044200
     39 H4         119.2290   115.4190   146.8690 hc         1 8WL       0.071700
     40 H5         119.5950   112.9610   146.8830 hc         1 8WL       0.044200
     41 H6         117.8740   113.3650   146.7280 hc         1 8WL       0.044200
     42 H7         118.7890   112.8220   145.3050 hc         1 8WL       0.044200
     43 H8         124.6570   115.6980   144.6220 hc         1 8WL       0.083700
     44 H9         124.1200   114.8530   147.1460 hc         1 8WL       0.073200
     45 H10        125.6400   115.5970   146.6920 hc         1 8WL       0.073200
     46 H11        123.2640   117.1000   147.9260 h1         1 8WL       0.070950
     47 H12        124.7370   116.5950   148.7760 h1         1 8WL       0.070950
     48 H13        123.5460   120.6540   150.6930 h5         1 8WL       0.056100
     49 H14        128.3850   124.3800   148.5640 ha         1 8WL       0.128000
     50 H15        129.1730   126.1470   150.0950 ha         1 8WL       0.123000
     51 H16        128.1250   128.0780   154.0000 h1         1 8WL       0.105700
     52 H17        127.5230   127.6480   152.3570 h1         1 8WL       0.105700
     53 H18        127.1180   126.6020   153.7660 h1         1 8WL       0.105700
     54 H19        128.2940   123.5810   153.4830 ha         1 8WL       0.155000
     55 H20        126.0910   118.0450   145.5080 h1         1 8WL       0.070950
     56 H21        125.0710   119.4820   145.6670 h1         1 8WL       0.070950
     57 H22        124.0440   117.9110   144.0600 hc         1 8WL       0.073200
     58 H23        123.0250   118.1220   145.4730 hc         1 8WL       0.073200
     59 H24        127.9130   122.0750   148.2890 hn         1 8WL       0.549000
@<TRIPOS>BOND
     1     1     2 1   
     2     1    36 1   
     3     1    37 1   
     4     1    38 1   
     5     2     3 1   
     6     2     4 1   
     7     2    39 1   
     8     3    40 1   
     9     3    41 1   
    10     3    42 1   
    11     4    23 2   
    12     4    29 1   
    13     5     6 1   
    14     5    29 2   
    15     5    30 1   
    16     6     7 1   
    17     6    21 1   
    18     6    43 1   
    19     7     8 1   
    20     7    44 1   
    21     7    45 1   
    22     8    24 1   
    23     8    46 1   
    24     8    47 1   
    25     9    19 ar  
    26     9    24 1   
    27     9    25 ar  
    28    10    25 ar  
    29    10    26 ar  
    30    10    48 1   
    31    11    19 ar  
    32    11    26 ar  
    33    11    27 1   
    34    12    13 ar  
    35    12    18 ar  
    36    12    27 1   
    37    13    14 ar  
    38    13    49 1   
    39    14    15 ar  
    40    14    50 1   
    41    15    17 ar  
    42    15    35 1   
    43    16    35 1   
    44    16    51 1   
    45    16    52 1   
    46    16    53 1   
    47    17    18 ar  
    48    17    54 1   
    49    18    22 1   
    50    19    28 1   
    51    20    21 1   
    52    20    24 1   
    53    20    55 1   
    54    20    56 1   
    55    21    57 1   
    56    21    58 1   
    57    23    30 1   
    58    27    59 1   
    59    28    33 1   
    60    28    34 1   
    61    31    35 2   
    62    32    35 2   
@<TRIPOS>SUBSTRUCTURE
     1 8WL         1 TEMP              0 ****  ****    0 ROOT
