@<TRIPOS>MOLECULE
8WL
   59    62     1     0     0
SMALL
bcc


@<TRIPOS>ATOM
      1 C1         118.6740   116.9100   145.2300 c3         1 8WL      -0.087100
      2 C2         119.1550   115.8400   146.2130 c3         1 8WL      -0.090000
      3 C3         118.2150   114.6430   146.2360 c3         1 8WL      -0.087100
      4 C4         120.5610   115.4590   145.8930 cc         1 8WL       0.561300
      5 C7         122.6120   115.6440   145.5800 cd         1 8WL       0.527700
      6 C8         124.0420   116.0360   145.4480 c6         1 8WL      -0.094000
      7 C9         124.8850   115.4810   146.6160 c6         1 8WL      -0.093900
      8 C10        124.9480   116.4600   147.7720 c6         1 8WL       0.223300
      9 C12        126.0520   118.5500   148.2670 ca         1 8WL       0.806200
     10 C14        125.8340   119.2910   150.3990 ca         1 8WL       0.776900
     11 C16        126.8690   120.7160   148.9830 ca         1 8WL       0.800200
     12 C18        127.5460   122.8830   149.8040 ca         1 8WL       0.155600
     13 C19        126.9480   124.1270   149.6850 ca         1 8WL      -0.132000
     14 C20        127.0930   125.0880   150.6780 ca         1 8WL      -0.053000
     15 C21        127.8390   124.7840   151.8040 ca         1 8WL      -0.227500
     16 C23        127.2470   127.4070   152.7260 c3         1 8WL      -0.231300
     17 C26        128.4630   123.5480   151.9440 ca         1 8WL      -0.072000
     18 C27        128.3160   122.6260   150.9360 ca         1 8WL       0.149900
     19 C29        126.8600   119.6960   147.9970 ca         1 8WL      -0.585800
     20 C33        125.5330   118.0140   145.9220 c6         1 8WL       0.223300
     21 C34        124.1880   117.5610   145.3790 c6         1 8WL      -0.093900
     22 F28        128.9420   121.4550   151.0320 f          1 8WL      -0.120900
     23 N5         120.9290   114.2680   145.5390 nd         1 8WL      -0.370300
     24 N11        125.6220   117.6900   147.3420 nh         1 8WL      -0.739300
     25 N13        125.6390   118.3340   149.5240 nb         1 8WL      -0.832000
     26 N15        126.3360   120.4930   150.1830 nb         1 8WL      -0.825000
     27 N17        127.4230   121.9280   148.7860 nu         1 8WL      -0.739300
     28 N30        127.7850   119.7240   146.9230 no         1 8WL       0.348200
     29 N35        121.5950   116.3560   145.9320 nc         1 8WL      -0.725000
     30 O6         122.2800   114.3850   145.3280 os         1 8WL      -0.139100
     31 O24        129.4810   126.1460   153.3240 o          1 8WL      -0.584300
     32 O25        127.3470   125.3050   154.3170 o          1 8WL      -0.584300
     33 O31        128.1610   120.8030   146.4920 o          1 8WL      -0.239500
     34 O32        128.2140   118.6690   146.5020 o          1 8WL      -0.239500
     35 S22        128.0510   125.8920   153.1800 sy         1 8WL       1.088300
     36 H1         117.6740   117.2450   145.5040 hc         1 8WL       0.044200
     37 H2         119.3300   117.7800   145.2250 hc         1 8WL       0.044200
     38 H3         118.6280   116.5120   144.2150 hc         1 8WL       0.044200
     39 H4         119.1780   116.2890   147.2120 hc         1 8WL       0.071700
     40 H5         118.5280   113.8900   146.9580 hc         1 8WL       0.044200
     41 H6         117.2120   114.9710   146.5090 hc         1 8WL       0.044200
     42 H7         118.1530   114.1670   145.2560 hc         1 8WL       0.044200
     43 H8         124.4150   115.5890   144.5230 hc         1 8WL       0.083700
     44 H9         124.4930   114.5310   146.9800 hc         1 8WL       0.073200
     45 H10        125.8950   115.2750   146.2570 hc         1 8WL       0.073200
     46 H11        123.9440   116.6810   148.1460 h1         1 8WL       0.070950
     47 H12        125.5060   116.0230   148.5970 h1         1 8WL       0.070950
     48 H13        125.5140   119.0850   151.4150 h5         1 8WL       0.056100
     49 H14        126.3510   124.3460   148.8090 ha         1 8WL       0.146000
     50 H15        126.6090   126.0460   150.5550 ha         1 8WL       0.141000
     51 H16        127.4020   128.0820   153.5670 h1         1 8WL       0.105700
     52 H17        127.7050   127.8260   151.8330 h1         1 8WL       0.105700
     53 H18        126.1810   127.2440   152.5820 h1         1 8WL       0.105700
     54 H19        129.0680   123.3010   152.8080 ha         1 8WL       0.173000
     55 H20        126.3510   117.5600   145.3570 h1         1 8WL       0.070950
     56 H21        125.6020   119.0940   145.7970 h1         1 8WL       0.070950
     57 H22        124.0910   117.9050   144.3490 hc         1 8WL       0.073200
     58 H23        123.3970   118.0480   145.9500 hc         1 8WL       0.073200
     59 H24        127.6610   122.1990   147.8440 hn         1 8WL       0.493800
@<TRIPOS>BOND
     1     1     2 1   
     2     1    36 1   
     3     1    37 1   
     4     1    38 1   
     5     2     3 1   
     6     2     4 1   
     7     2    39 1   
     8     3    40 1   
     9     3    41 1   
    10     3    42 1   
    11     4    23 2   
    12     4    29 1   
    13     5     6 1   
    14     5    29 2   
    15     5    30 1   
    16     6     7 1   
    17     6    21 1   
    18     6    43 1   
    19     7     8 1   
    20     7    44 1   
    21     7    45 1   
    22     8    24 1   
    23     8    46 1   
    24     8    47 1   
    25     9    19 ar  
    26     9    24 1   
    27     9    25 ar  
    28    10    25 ar  
    29    10    26 ar  
    30    10    48 1   
    31    11    19 ar  
    32    11    26 ar  
    33    11    27 1   
    34    12    13 ar  
    35    12    18 ar  
    36    12    27 1   
    37    13    14 ar  
    38    13    49 1   
    39    14    15 ar  
    40    14    50 1   
    41    15    17 ar  
    42    15    35 1   
    43    16    35 1   
    44    16    51 1   
    45    16    52 1   
    46    16    53 1   
    47    17    18 ar  
    48    17    54 1   
    49    18    22 1   
    50    19    28 1   
    51    20    21 1   
    52    20    24 1   
    53    20    55 1   
    54    20    56 1   
    55    21    57 1   
    56    21    58 1   
    57    23    30 1   
    58    27    59 1   
    59    28    33 1   
    60    28    34 1   
    61    31    35 2   
    62    32    35 2   
@<TRIPOS>SUBSTRUCTURE
     1 8WL         1 TEMP              0 ****  ****    0 ROOT
