@<TRIPOS>MOLECULE
8WN
   69    73     1     0     0
SMALL
abcg2


@<TRIPOS>ATOM
      1 OAD         -7.0270    -1.6070    -0.2980 o          1 8WN      -0.507000
      2 CBF         -6.6170    -0.6140     0.2700 c          1 8WN       0.613600
      3 CBG         -7.2910     0.6390     0.4010 cc         1 8WN      -0.333600
      4 CAP         -8.5120     1.1760    -0.0480 cc         1 8WN       0.321900
      5 NAY         -8.6520     2.4110     0.3740 nd         1 8WN      -0.511800
      6 NBJ         -7.5560     2.7020     1.0940 na         1 8WN       0.141800
      7 CAB         -7.4080     3.9930     1.7180 c3         1 8WN       0.074900
      8 CBH         -6.7120     1.6630     1.1360 cd         1 8WN       0.127400
      9 NAX         -5.5280     1.6070     1.7860 nd         1 8WN      -0.626100
     10 CAQ         -4.9230     0.4780     1.6390 cc         1 8WN       0.515800
     11 NBK         -5.3610    -0.5910     0.9170 n          1 8WN      -0.346300
     12 CAW         -4.5040    -1.7710     0.8450 c3         1 8WN       0.060000
     13 CBL         -3.4980    -1.7320    -0.3180 c6         1 8WN       0.174000
     14 CAV         -2.8250    -3.1030    -0.3910 c6         1 8WN      -0.117900
     15 CAT         -1.6960    -3.1240    -1.4120 c6         1 8WN       0.097500
     16 OAG         -4.1580    -1.5370    -1.5500 oh         1 8WN      -0.640000
     17 CAU         -2.4270    -0.6550    -0.1080 c6         1 8WN      -0.117900
     18 CAS         -1.3040    -0.7510    -1.1350 c6         1 8WN       0.097500
     19 NBI         -0.7210    -2.0830    -1.1250 n          1 8WN      -0.398800
     20 CBA          0.4540    -2.4020    -0.5430 c          1 8WN       0.610700
     21 OAC          0.7580    -3.5460    -0.2300 o          1 8WN      -0.587100
     22 CBB          1.4440    -1.3030    -0.3160 ca         1 8WN      -0.138600
     23 CAL          2.0300    -1.1770     0.9400 ca         1 8WN      -0.075000
     24 CAO          3.0030    -0.2170     1.1670 ca         1 8WN      -0.115000
     25 CAK          1.8690    -0.4740    -1.3490 ca         1 8WN      -0.075000
     26 CAN          2.8560     0.4730    -1.1250 ca         1 8WN      -0.115000
     27 CBC          3.4350     0.6150     0.1360 cp         1 8WN      -0.040000
     28 CBE          4.4730     1.6390     0.3880 cp         1 8WN      -0.074000
     29 CAM          4.2310     2.6450     1.3210 ca         1 8WN      -0.088000
     30 CAI          5.1810     3.6180     1.5910 ca         1 8WN      -0.110000
     31 CAH          6.3900     3.6050     0.9100 ca         1 8WN      -0.091000
     32 CAJ          6.6470     2.6190    -0.0290 ca         1 8WN      -0.089000
     33 CBD          5.7030     1.6290    -0.2840 ca         1 8WN       0.251000
     34 NAZ          6.0220     0.6100    -1.2190 nu         1 8WN      -0.873100
     35 SBM          7.1410    -0.5580    -0.8110 s6         1 8WN       1.172100
     36 OAE          7.1340    -1.5010    -1.9180 o          1 8WN      -0.524000
     37 OAF          8.3780     0.1150    -0.4550 o          1 8WN      -0.524000
     38 CAR          6.5050    -1.3730     0.6520 c3         1 8WN      -0.335400
     39 CAA          7.4400    -2.4800     1.1060 c3         1 8WN      -0.065100
     40 H1          -9.2740     0.7140    -0.6570 h4         1 8WN       0.055100
     41 H2          -8.1880     4.1480     2.4600 h1         1 8WN       0.063033
     42 H3          -6.4390     4.0330     2.2080 h1         1 8WN       0.063033
     43 H4          -7.4600     4.7800     0.9690 h1         1 8WN       0.063033
     44 H5          -3.9740     0.3330     2.1400 h5         1 8WN       0.047800
     45 H6          -3.9720    -1.8610     1.7920 h1         1 8WN       0.076700
     46 H7          -5.1440    -2.6460     0.7480 h1         1 8WN       0.076700
     47 H8          -2.4290    -3.3680     0.5930 hc         1 8WN       0.058450
     48 H9          -3.5680    -3.8630    -0.6500 hc         1 8WN       0.058450
     49 H10         -1.2050    -4.0930    -1.4200 h1         1 8WN       0.068200
     50 H11         -2.0910    -2.9480    -2.4160 h1         1 8WN       0.068200
     51 H12         -4.3530    -0.6020    -1.6700 ho         1 8WN       0.447000
     52 H13         -2.8630     0.3480    -0.1660 hc         1 8WN       0.058450
     53 H14         -2.0010    -0.7520     0.8950 hc         1 8WN       0.058450
     54 H15         -1.6780    -0.5400    -2.1390 h1         1 8WN       0.068200
     55 H16         -0.5520     0.0010    -0.9140 h1         1 8WN       0.068200
     56 H17          1.7230    -1.8250     1.7500 ha         1 8WN       0.129500
     57 H18          3.4420    -0.1250     2.1520 ha         1 8WN       0.125000
     58 H19          1.4330    -0.5600    -2.3360 ha         1 8WN       0.129500
     59 H20          3.1510     1.1270    -1.9380 ha         1 8WN       0.125000
     60 H21          3.2800     2.6620     1.8390 ha         1 8WN       0.119000
     61 H22          4.9730     4.3890     2.3210 ha         1 8WN       0.121000
     62 H23          7.1340     4.3660     1.1030 ha         1 8WN       0.125000
     63 H24          7.5800     2.6200    -0.5740 ha         1 8WN       0.149000
     64 H25          5.2310     0.1910    -1.6970 hn         1 8WN       0.493000
     65 H26          6.3920    -0.6060     1.4200 h1         1 8WN       0.094700
     66 H27          5.5160    -1.7540     0.3950 h1         1 8WN       0.094700
     67 H28          7.0270    -2.9430     2.0010 hc         1 8WN       0.052367
     68 H29          7.5450    -3.2540     0.3480 hc         1 8WN       0.052367
     69 H30          8.4270    -2.0940     1.3550 hc         1 8WN       0.052367
@<TRIPOS>BOND
     1     1     2 2   
     2     2     3 1   
     3     2    11 1   
     4     3     4 1   
     5     3     8 2   
     6     4     5 2   
     7     4    40 1   
     8     5     6 1   
     9     6     7 1   
    10     6     8 1   
    11     7    41 1   
    12     7    42 1   
    13     7    43 1   
    14     8     9 1   
    15     9    10 2   
    16    10    11 1   
    17    10    44 1   
    18    11    12 1   
    19    12    13 1   
    20    12    45 1   
    21    12    46 1   
    22    13    14 1   
    23    13    16 1   
    24    13    17 1   
    25    14    15 1   
    26    14    47 1   
    27    14    48 1   
    28    15    19 1   
    29    15    49 1   
    30    15    50 1   
    31    16    51 1   
    32    17    18 1   
    33    17    52 1   
    34    17    53 1   
    35    18    19 1   
    36    18    54 1   
    37    18    55 1   
    38    19    20 1   
    39    20    21 2   
    40    20    22 1   
    41    22    23 ar  
    42    22    25 ar  
    43    23    24 ar  
    44    23    56 1   
    45    24    27 ar  
    46    24    57 1   
    47    25    26 ar  
    48    25    58 1   
    49    26    27 ar  
    50    26    59 1   
    51    27    28 1   
    52    28    29 ar  
    53    28    33 ar  
    54    29    30 ar  
    55    29    60 1   
    56    30    31 ar  
    57    30    61 1   
    58    31    32 ar  
    59    31    62 1   
    60    32    33 ar  
    61    32    63 1   
    62    33    34 1   
    63    34    35 1   
    64    34    64 1   
    65    35    36 2   
    66    35    37 2   
    67    35    38 1   
    68    38    39 1   
    69    38    65 1   
    70    38    66 1   
    71    39    67 1   
    72    39    68 1   
    73    39    69 1   
@<TRIPOS>SUBSTRUCTURE
     1 8WN         1 TEMP              0 ****  ****    0 ROOT
