@<TRIPOS>MOLECULE
8WN
   69    73     1     0     0
SMALL
No Charge or Current Charge


@<TRIPOS>ATOM
      1 OAD         -6.9790    -0.9970    -1.2500 o          1 8WN      -0.507000
      2 CBF         -6.7580    -0.2100    -0.3410 c          1 8WN       0.613600
      3 CBG         -7.4180     1.0610    -0.1830 cc         1 8WN      -0.333600
      4 CAP         -8.4170     1.6320    -0.9780 cc         1 8WN       0.321900
      5 NAY         -8.8100     2.8250    -0.5560 nd         1 8WN      -0.511800
      6 NBJ         -8.0100     3.0260     0.5730 na         1 8WN       0.141800
      7 CAB         -8.1110     4.2480     1.3800 c3         1 8WN       0.074900
      8 CBH         -7.1590     1.9390     0.7960 cd         1 8WN       0.127400
      9 NAX         -6.2080     1.7020     1.7770 nd         1 8WN      -0.626100
     10 CAQ         -5.5840     0.5210     1.6510 cc         1 8WN       0.515800
     11 NBK         -5.8060    -0.4300     0.6520 n          1 8WN      -0.346300
     12 CAW         -5.0820    -1.7300     0.6760 c3         1 8WN       0.060000
     13 CBL         -3.8050    -1.8160    -0.2270 c6         1 8WN       0.174000
     14 CAV         -3.1410    -3.2100    -0.0720 c6         1 8WN      -0.117900
     15 CAT         -1.8130    -3.3090    -0.8600 c6         1 8WN       0.097500
     16 OAG         -4.2040    -1.6390    -1.5920 oh         1 8WN      -0.640000
     17 CAU         -2.7690    -0.7190     0.1470 c6         1 8WN      -0.117900
     18 CAS         -1.4390    -0.8710    -0.6320 c6         1 8WN       0.097500
     19 NBI         -0.8620    -2.2350    -0.4700 n          1 8WN      -0.398800
     20 CBA          0.2310    -2.4960     0.3910 c          1 8WN       0.610700
     21 OAC          0.3220    -3.5680     0.9780 o          1 8WN      -0.587100
     22 CBB          1.3440    -1.4730     0.4930 ca         1 8WN      -0.138600
     23 CAL          2.0860    -1.3720     1.6890 ca         1 8WN      -0.075000
     24 CAO          3.1370    -0.4460     1.8020 ca         1 8WN      -0.115000
     25 CAK          1.7040    -0.6520    -0.6000 ca         1 8WN      -0.075000
     26 CAN          2.7570     0.2710    -0.4820 ca         1 8WN      -0.115000
     27 CBC          3.4940     0.3890     0.7200 cp         1 8WN      -0.040000
     28 CBE          4.6120     1.3730     0.8550 cp         1 8WN      -0.074000
     29 CAM          4.5790     2.3120     1.9150 ca         1 8WN      -0.088000
     30 CAI          5.6020     3.2570     2.0800 ca         1 8WN      -0.110000
     31 CAH          6.6820     3.2780     1.1860 ca         1 8WN      -0.091000
     32 CAJ          6.7420     2.3480     0.1350 ca         1 8WN      -0.089000
     33 CBD          5.7250     1.3850    -0.0350 ca         1 8WN       0.251000
     34 NAZ          5.7930     0.4290    -1.0530 nu         1 8WN      -0.873100
     35 SBM          7.1240    -0.3920    -1.6100 s6         1 8WN       1.172100
     36 OAE          6.5730    -1.5020    -2.3890 o          1 8WN      -0.524000
     37 OAF          8.0000     0.5970    -2.2410 o          1 8WN      -0.524000
     38 CAR          7.9110    -1.0520    -0.1320 c3         1 8WN      -0.335400
     39 CAA          9.1700    -1.8980    -0.4360 c3         1 8WN      -0.065100
     40 H1          -8.8770     1.2090    -1.8630 h4         1 8WN       0.055100
     41 H2          -8.7540     4.0580     2.2470 h1         1 8WN       0.063033
     42 H3          -7.1130     4.5420     1.7240 h1         1 8WN       0.063033
     43 H4          -8.5390     5.0580     0.7780 h1         1 8WN       0.063033
     44 H5          -4.8270     0.2380     2.3730 h5         1 8WN       0.047800
     45 H6          -4.7800    -1.9410     1.7100 h1         1 8WN       0.076700
     46 H7          -5.7720    -2.5360     0.3920 h1         1 8WN       0.076700
     47 H8          -2.9400    -3.4110     0.9890 hc         1 8WN       0.058450
     48 H9          -3.8280    -3.9980    -0.4110 hc         1 8WN       0.058450
     49 H10         -1.3630    -4.3000    -0.7030 h1         1 8WN       0.068200
     50 H11         -2.0190    -3.2250    -1.9370 h1         1 8WN       0.068200
     51 H12         -5.1810    -1.5110    -1.5900 ho         1 8WN       0.447000
     52 H13         -3.1840     0.2800    -0.0430 hc         1 8WN       0.058450
     53 H14         -2.5560    -0.7660     1.2240 hc         1 8WN       0.058450
     54 H15         -1.6130    -0.6800    -1.7010 h1         1 8WN       0.068200
     55 H16         -0.7470    -0.0990    -0.2720 h1         1 8WN       0.068200
     56 H17          1.8410    -2.0060     2.5390 ha         1 8WN       0.129500
     57 H18          3.6900    -0.3800     2.7370 ha         1 8WN       0.125000
     58 H19          1.1800    -0.7350    -1.5490 ha         1 8WN       0.129500
     59 H20          3.0020     0.9080    -1.3290 ha         1 8WN       0.125000
     60 H21          3.7400     2.3100     2.6080 ha         1 8WN       0.119000
     61 H22          5.5550     3.9750     2.8960 ha         1 8WN       0.121000
     62 H23          7.4740     4.0150     1.3070 ha         1 8WN       0.125000
     63 H24          7.5860     2.3890    -0.5450 ha         1 8WN       0.149000
     64 H25          5.0610    -0.2680    -1.0450 hn         1 8WN       0.493000
     65 H26          8.1690    -0.1910     0.4930 h1         1 8WN       0.094700
     66 H27          7.1530    -1.6570     0.3780 h1         1 8WN       0.094700
     67 H28          9.6110    -2.2750     0.4950 hc         1 8WN       0.052367
     68 H29          8.9220    -2.7600    -1.0670 hc         1 8WN       0.052367
     69 H30          9.9310    -1.2990    -0.9530 hc         1 8WN       0.052367
@<TRIPOS>BOND
     1     1     2 2   
     2     2     3 1   
     3     2    11 1   
     4     3     4 1   
     5     3     8 2   
     6     4     5 2   
     7     4    40 1   
     8     5     6 1   
     9     6     7 1   
    10     6     8 1   
    11     7    41 1   
    12     7    42 1   
    13     7    43 1   
    14     8     9 1   
    15     9    10 2   
    16    10    11 1   
    17    10    44 1   
    18    11    12 1   
    19    12    13 1   
    20    12    45 1   
    21    12    46 1   
    22    13    14 1   
    23    13    16 1   
    24    13    17 1   
    25    14    15 1   
    26    14    47 1   
    27    14    48 1   
    28    15    19 1   
    29    15    49 1   
    30    15    50 1   
    31    16    51 1   
    32    17    18 1   
    33    17    52 1   
    34    17    53 1   
    35    18    19 1   
    36    18    54 1   
    37    18    55 1   
    38    19    20 1   
    39    20    21 2   
    40    20    22 1   
    41    22    23 ar  
    42    22    25 ar  
    43    23    24 ar  
    44    23    56 1   
    45    24    27 ar  
    46    24    57 1   
    47    25    26 ar  
    48    25    58 1   
    49    26    27 ar  
    50    26    59 1   
    51    27    28 1   
    52    28    29 ar  
    53    28    33 ar  
    54    29    30 ar  
    55    29    60 1   
    56    30    31 ar  
    57    30    61 1   
    58    31    32 ar  
    59    31    62 1   
    60    32    33 ar  
    61    32    63 1   
    62    33    34 1   
    63    34    35 1   
    64    34    64 1   
    65    35    36 2   
    66    35    37 2   
    67    35    38 1   
    68    38    39 1   
    69    38    65 1   
    70    38    66 1   
    71    39    67 1   
    72    39    68 1   
    73    39    69 1   
@<TRIPOS>SUBSTRUCTURE
     1 8WN         1 TEMP              0 ****  ****    0 ROOT
