@<TRIPOS>MOLECULE
8WO
   24    24     1     0     0
SMALL
No Charge or Current Charge


@<TRIPOS>ATOM
      1 C4          -0.5640    -1.3860     0.1160 ce         1 8WO       0.003000
      2 C5           0.8880    -1.3510     0.0240 ce         1 8WO      -0.452000
      3 C2          -0.5900     1.0910    -0.3750 c6         1 8WO       0.295000
      4 C3          -1.2960    -0.2520    -0.0660 cf         1 8WO      -0.327400
      5 C1           1.5330    -0.1730     0.0130 c2         1 8WO       0.386100
      6 C6          -2.7790    -0.2810     0.0930 c          1 8WO       0.633300
      7 C7           3.7540    -1.1710    -0.1680 c3         1 8WO       0.162900
      8 N1           0.8170     1.0070     0.1150 nh         1 8WO      -0.659400
      9 N2          -3.4490     0.8690    -0.1240 nt         1 8WO      -0.611000
     10 O1          -3.3990    -1.2870     0.3940 o          1 8WO      -0.625100
     11 O2           2.8950    -0.0240    -0.0440 os         1 8WO      -0.359100
     12 H1          -1.0520    -2.3420     0.3310 ha         1 8WO       0.198000
     13 H2           1.4090    -2.3060    -0.0090 ha         1 8WO       0.197000
     14 H3          -0.5970     1.2570    -1.4620 h1         1 8WO       0.032200
     15 H4           0.7380     3.1040     0.5380 h1         1 8WO       0.044367
     16 H5           1.9800     2.2010     1.4340 h1         1 8WO       0.044367
     17 H6           2.2120     2.5610    -0.2960 h1         1 8WO       0.044367
     18 H7           4.8040    -0.8560    -0.2140 h1         1 8WO       0.050033
     19 H8           3.6390    -1.8410     0.6940 h1         1 8WO       0.050033
     20 H9           3.5270    -1.7320    -1.0830 h1         1 8WO       0.050033
     21 H10         -2.9540     1.7070    -0.3850 hn         1 8WO       0.302000
     22 H11         -4.4530     0.8760    -0.0280 hn         1 8WO       0.302000
     23 H12         -1.1100     1.9340     0.1030 h1         1 8WO       0.032200
     24 C8           1.4690     2.2880     0.4660 c3         1 8WO       0.206100
@<TRIPOS>BOND
     1     1     2 1   
     2     1     4 2   
     3     1    12 1   
     4     2     5 2   
     5     2    13 1   
     6     3     4 1   
     7     3     8 1   
     8     3    14 1   
     9     3    23 1   
    10     4     6 1   
    11     5     8 1   
    12     5    11 1   
    13     6     9 1   
    14     6    10 2   
    15     7    11 1   
    16     7    18 1   
    17     7    19 1   
    18     7    20 1   
    19     8    24 1   
    20     9    21 1   
    21     9    22 1   
    22    15    24 1   
    23    16    24 1   
    24    17    24 1   
@<TRIPOS>SUBSTRUCTURE
     1 8WO         1 TEMP              0 ****  ****    0 ROOT
