@<TRIPOS>MOLECULE
8WO
   24    24     1     0     0
SMALL
abcg2


@<TRIPOS>ATOM
      1 C4          -0.5460    -1.3710    -0.0210 ce         1 8WO       0.003000
      2 C5           0.8650    -1.3640    -0.1640 ce         1 8WO      -0.452000
      3 C2          -0.5450     1.0560    -0.3080 c6         1 8WO       0.295000
      4 C3          -1.2740    -0.2290    -0.0130 cf         1 8WO      -0.327400
      5 C1           1.5130    -0.1610    -0.0050 c2         1 8WO       0.386100
      6 C6          -2.7290    -0.2860     0.1620 c          1 8WO       0.633300
      7 C7           3.6580    -1.1600     0.0130 c3         1 8WO       0.162900
      8 N1           0.8270     0.9890     0.1770 nh         1 8WO      -0.659400
      9 N2          -3.4040     0.8750    -0.0200 nt         1 8WO      -0.611000
     10 O1          -3.3230    -1.3210     0.4620 o          1 8WO      -0.625100
     11 O2           2.8290    -0.0080     0.0520 os         1 8WO      -0.359100
     12 H1          -1.0460    -2.3240     0.1040 ha         1 8WO       0.198000
     13 H2           1.4130    -2.2870    -0.2650 ha         1 8WO       0.197000
     14 H3          -0.5570     1.2920    -1.3870 h1         1 8WO       0.032200
     15 H4           0.8120     2.9480     0.8320 h1         1 8WO       0.044367
     16 H5           2.3820     2.1700     0.9630 h1         1 8WO       0.044367
     17 H6           1.7880     2.7030    -0.6190 h1         1 8WO       0.044367
     18 H7           4.6780    -0.8010     0.1090 h1         1 8WO       0.050033
     19 H8           3.4360    -1.8410     0.8360 h1         1 8WO       0.050033
     20 H9           3.5540    -1.6940    -0.9340 h1         1 8WO       0.050033
     21 H10         -2.9860     1.6850    -0.4420 hn         1 8WO       0.302000
     22 H11         -4.4100     0.8570    -0.0020 hn         1 8WO       0.302000
     23 H12         -1.0100     1.9040     0.1990 h1         1 8WO       0.032200
     24 C8           1.4980     2.2610     0.3390 c3         1 8WO       0.206100
@<TRIPOS>BOND
     1     1     2 1   
     2     1     4 2   
     3     1    12 1   
     4     2     5 2   
     5     2    13 1   
     6     3     4 1   
     7     3     8 1   
     8     3    14 1   
     9     3    23 1   
    10     4     6 1   
    11     5     8 1   
    12     5    11 1   
    13     6     9 1   
    14     6    10 2   
    15     7    11 1   
    16     7    18 1   
    17     7    19 1   
    18     7    20 1   
    19     8    24 1   
    20     9    21 1   
    21     9    22 1   
    22    15    24 1   
    23    16    24 1   
    24    17    24 1   
@<TRIPOS>SUBSTRUCTURE
     1 8WO         1 TEMP              0 ****  ****    0 ROOT
