@<TRIPOS>MOLECULE
8WP
   25    26     1     0     0
SMALL
No Charge or Current Charge


@<TRIPOS>ATOM
      1 C1          13.0740     5.8870    31.5980 c3         1 8WP      -0.134200
      2 N2           9.7020     3.1930    34.1550 nc         1 8WP      -0.456800
      3 N3          10.7580     6.5310    32.0010 ns         1 8WP      -0.394100
      4 C4           8.4390     3.5360    34.3810 cd         1 8WP       0.120300
      5 C5           8.1160     4.7890    33.8060 cd         1 8WP      -0.095000
      6 C6           9.2510     5.2360    33.1940 cc         1 8WP      -0.240600
      7 C7           9.4660     6.4690    32.4540 c          1 8WP       0.608600
      8 C8           7.5000     2.6400    35.1730 c3         1 8WP       0.297700
      9 C           14.1520     6.1850    32.6400 c          1 8WP       0.601100
     10 O           14.6740     5.3220    33.3250 o          1 8WP      -0.576100
     11 C2          11.7370     5.5570    32.2130 cc         1 8WP       0.049400
     12 C3          11.4860     4.3850    32.9270 cd         1 8WP      -0.185100
     13 F            7.9510     2.4230    36.4310 f          1 8WP      -0.105667
     14 F1           6.2610     3.1730    35.2890 f          1 8WP      -0.105667
     15 F2           7.3500     1.4270    34.5920 f          1 8WP      -0.105667
     16 N1          10.1880     4.2530    33.4220 na         1 8WP       0.289900
     17 H3          13.4040     5.0200    31.0150 hc         1 8WP       0.079700
     18 H2          12.9770     6.7440    30.9210 hc         1 8WP       0.079700
     19 H6          10.9800     7.3640    31.4700 hn         1 8WP       0.336500
     20 H5           7.1560     5.2950    33.8450 ha         1 8WP       0.176000
     21 H1          15.2170     7.7230    33.4620 hn         1 8WP       0.319500
     22 H           14.0760     8.1940    32.2180 hn         1 8WP       0.319500
     23 H4          12.1920     3.5900    33.1300 h4         1 8WP       0.244000
     24 O1           8.6360     7.3400    32.2500 o          1 8WP      -0.513000
     25 N           14.5100     7.4790    32.7830 nt         1 8WP      -0.609000
@<TRIPOS>BOND
     1     1     9 1   
     2     1    11 1   
     3     1    17 1   
     4     1    18 1   
     5     2     4 2   
     6     2    16 1   
     7     3     7 1   
     8     3    11 1   
     9     3    19 1   
    10     4     5 1   
    11     4     8 1   
    12     5     6 2   
    13     5    20 1   
    14     6     7 1   
    15     6    16 1   
    16     7    24 2   
    17     8    13 1   
    18     8    14 1   
    19     8    15 1   
    20     9    10 2   
    21     9    25 1   
    22    11    12 2   
    23    12    16 1   
    24    12    23 1   
    25    21    25 1   
    26    22    25 1   
@<TRIPOS>SUBSTRUCTURE
     1 8WP         1 TEMP              0 ****  ****    0 ROOT
