@<TRIPOS>MOLECULE
8WP
   25    26     1     0     0
SMALL
abcg2


@<TRIPOS>ATOM
      1 C1          13.0290     5.8590    31.8060 c3         1 8WP      -0.134200
      2 N2           9.5770     3.1600    33.9040 nc         1 8WP      -0.456800
      3 N3          10.7910     6.6530    32.4100 ns         1 8WP      -0.394100
      4 C4           8.3390     3.4670    34.2790 cd         1 8WP       0.120300
      5 C5           8.0140     4.7950    34.0160 cd         1 8WP      -0.095000
      6 C6           9.1630     5.2960    33.4400 cc         1 8WP      -0.240600
      7 C7           9.5180     6.6030    32.9100 c          1 8WP       0.608600
      8 C8           7.4910     2.4220    34.9090 c3         1 8WP       0.297700
      9 C           13.9010     6.7140    32.7210 c          1 8WP       0.601100
     10 O           13.6610     6.8310    33.9100 o          1 8WP      -0.576100
     11 C2          11.6840     5.6020    32.3890 cc         1 8WP       0.049400
     12 C3          11.3320     4.4050    32.8790 cd         1 8WP      -0.185100
     13 F            7.9480     2.0620    36.1140 f          1 8WP      -0.105667
     14 F1           6.2400     2.8590    35.0690 f          1 8WP      -0.105667
     15 F2           7.4420     1.3080    34.1710 f          1 8WP      -0.105667
     16 N1          10.0580     4.2730    33.4020 na         1 8WP       0.289900
     17 H3          13.5400     4.9070    31.6490 hc         1 8WP       0.079700
     18 H2          12.9340     6.3220    30.8200 hc         1 8WP       0.079700
     19 H6          11.0820     7.5400    32.0180 hn         1 8WP       0.336500
     20 H5           7.0930     5.3200    34.2070 ha         1 8WP       0.176000
     21 H1          15.6200     7.8130    32.6380 hn         1 8WP       0.319500
     22 H           15.1190     7.1670    31.1240 hn         1 8WP       0.319500
     23 H4          11.9700     3.5370    32.8960 h4         1 8WP       0.244000
     24 O1           8.7600     7.5540    32.9050 o          1 8WP      -0.513000
     25 N           14.9460     7.2840    32.1080 nt         1 8WP      -0.609000
@<TRIPOS>BOND
     1     1     9 1   
     2     1    11 1   
     3     1    17 1   
     4     1    18 1   
     5     2     4 2   
     6     2    16 1   
     7     3     7 1   
     8     3    11 1   
     9     3    19 1   
    10     4     5 1   
    11     4     8 1   
    12     5     6 2   
    13     5    20 1   
    14     6     7 1   
    15     6    16 1   
    16     7    24 2   
    17     8    13 1   
    18     8    14 1   
    19     8    15 1   
    20     9    10 2   
    21     9    25 1   
    22    11    12 2   
    23    12    16 1   
    24    12    23 1   
    25    21    25 1   
    26    22    25 1   
@<TRIPOS>SUBSTRUCTURE
     1 8WP         1 TEMP              0 ****  ****    0 ROOT
