@<TRIPOS>MOLECULE
8WR
   57    60     1     0     0
SMALL
No Charge or Current Charge


@<TRIPOS>ATOM
      1 CAA         -6.1530     3.3130    -0.2730 c3         1 8WR      -0.080433
      2 CAB         -5.7420     2.0590     1.9020 c3         1 8WR      -0.080433
      3 CAC         -8.0570     2.2190     0.9540 c3         1 8WR      -0.080433
      4 CAJ          4.7990    -2.9100     0.3720 ca         1 8WR      -0.121000
      5 CAK         -6.7980    -1.0020    -1.3470 cc         1 8WR       0.408400
      6 CAL          3.4180    -3.1510     0.4410 ca         1 8WR      -0.072000
      7 CAM          5.2780    -1.6570    -0.0380 ca         1 8WR      -0.066000
      8 CAN          8.1700     2.6360    -0.6140 ca         1 8WR      -0.122500
      9 CAO          7.7740     1.5290     1.5130 ca         1 8WR      -0.122500
     10 CAP          6.9700     2.1050    -1.1160 ca         1 8WR      -0.065500
     11 CAQ          6.5730     0.9950     1.0140 ca         1 8WR      -0.065500
     12 CAR          2.9850    -0.8900    -0.3260 ca         1 8WR      -0.063000
     13 CAW          4.8680     0.7160    -0.8630 c          1 8WR       0.592300
     14 CAX          8.5750     2.3460     0.6990 ca         1 8WR      -0.084000
     15 CAY          2.4930    -2.1430     0.1020 ca         1 8WR      -0.072800
     16 CAZ         -5.0850     0.2020    -0.5720 cc         1 8WR      -0.200800
     17 NAS         -5.4330    -0.9410    -1.2650 na         1 8WR      -0.300500
     18 NAT         -7.3400     0.0320    -0.7310 nd         1 8WR      -0.677000
     19 NAU         -0.1200    -0.3320     0.0930 ns         1 8WR      -0.411100
     20 NAV         -2.5430    -1.5370    -0.1240 ns         1 8WR      -0.415100
     21 OAD          4.2240     1.3550    -1.6880 o          1 8WR      -0.513100
     22 CBA          6.1650     1.2670    -0.3120 ca         1 8WR      -0.170600
     23 CBB          4.3730    -0.6310    -0.3830 ca         1 8WR      -0.165600
     24 CBC         -6.2930     0.7930    -0.2330 cd         1 8WR       0.306300
     25 CBD         -1.4520    -2.4070    -0.0110 c          1 8WR       0.575200
     26 CBE         -1.1930     0.5330    -0.0150 c          1 8WR       0.581200
     27 CBF         -0.1170    -1.7300     0.0890 cc         1 8WR      -0.029600
     28 CBG         -2.5330    -0.1260    -0.1540 cd         1 8WR      -0.065600
     29 CBH         -6.5510     2.0760     0.5750 c3         1 8WR      -0.069300
     30 H1          -5.0900     3.2990    -0.5360 hc         1 8WR       0.037478
     31 H2          -6.7270     3.3420    -1.2080 hc         1 8WR       0.037478
     32 H3          -6.3490     4.2440     0.2730 hc         1 8WR       0.037478
     33 H4          -5.9960     2.9250     2.5270 hc         1 8WR       0.037478
     34 H5          -5.9630     1.1520     2.4780 hc         1 8WR       0.037478
     35 H6          -4.6630     2.0940     1.7290 hc         1 8WR       0.037478
     36 H7          -8.6880     2.2850     0.0600 hc         1 8WR       0.037478
     37 H8          -8.3950     1.3630     1.5510 hc         1 8WR       0.037478
     38 H9          -8.2300     3.1270     1.5450 hc         1 8WR       0.037478
     39 H10          0.8610    -3.5330     0.2460 ha         1 8WR       0.216000
     40 H12         -3.5580     1.6740    -0.2150 ha         1 8WR       0.227000
     41 H14          5.5000    -3.6990     0.6340 ha         1 8WR       0.121000
     42 H15         -7.3210    -1.8000    -1.8620 h5         1 8WR       0.059100
     43 H16          3.0690    -4.1290     0.7640 ha         1 8WR       0.120000
     44 H17          6.3520    -1.4970    -0.1060 ha         1 8WR       0.126000
     45 H19          8.0800     1.3120     2.5340 ha         1 8WR       0.118000
     46 H20          6.6690     2.3390    -2.1360 ha         1 8WR       0.124500
     47 H21          5.9560     0.3810     1.6680 ha         1 8WR       0.124500
     48 H22          2.3030    -0.1090    -0.6440 ha         1 8WR       0.135000
     49 H23          9.5040     2.7590     1.0880 ha         1 8WR       0.115000
     50 H24         -4.8070    -1.5990    -1.7120 hn         1 8WR       0.357000
     51 H11          0.7600     0.1370     0.2210 hn         1 8WR       0.337500
     52 H13         -3.4320    -2.0190    -0.1430 hn         1 8WR       0.330500
     53 CAI         -3.7020     0.5950    -0.2870 ce         1 8WR      -0.102200
     54 CAH          1.0460    -2.4580     0.1850 cf         1 8WR      -0.157200
     55 OAE         -1.6260    -3.6170    -0.0010 o          1 8WR      -0.532000
     56 OAF         -1.0200     1.7420     0.0050 o          1 8WR      -0.527000
     57 H18          8.7870     3.2740    -1.2430 ha         1 8WR       0.118000
@<TRIPOS>BOND
     1     1    29 1   
     2     1    30 1   
     3     1    31 1   
     4     1    32 1   
     5     2    29 1   
     6     2    33 1   
     7     2    34 1   
     8     2    35 1   
     9     3    29 1   
    10     3    36 1   
    11     3    37 1   
    12     3    38 1   
    13     4     6 ar  
    14     4     7 ar  
    15     4    41 1   
    16     5    17 1   
    17     5    18 2   
    18     5    42 1   
    19     6    15 ar  
    20     6    43 1   
    21     7    23 ar  
    22     7    44 1   
    23     8    10 ar  
    24     8    14 ar  
    25     8    57 1   
    26     9    11 ar  
    27     9    14 ar  
    28     9    45 1   
    29    10    22 ar  
    30    10    46 1   
    31    11    22 ar  
    32    11    47 1   
    33    12    15 ar  
    34    12    23 ar  
    35    12    48 1   
    36    13    21 2   
    37    13    22 1   
    38    13    23 1   
    39    14    49 1   
    40    15    54 1   
    41    16    17 1   
    42    16    24 2   
    43    16    53 1   
    44    17    50 1   
    45    18    24 1   
    46    19    26 1   
    47    19    27 1   
    48    19    51 1   
    49    20    25 1   
    50    20    28 1   
    51    20    52 1   
    52    24    29 1   
    53    25    27 1   
    54    25    55 2   
    55    26    28 1   
    56    26    56 2   
    57    27    54 2   
    58    28    53 2   
    59    39    54 1   
    60    40    53 1   
@<TRIPOS>SUBSTRUCTURE
     1 8WR         1 TEMP              0 ****  ****    0 ROOT
