@<TRIPOS>MOLECULE
8WR
   57    60     1     0     0
SMALL
abcg2


@<TRIPOS>ATOM
      1 CAA         -5.6160     3.3670     0.0280 c3         1 8WR      -0.080433
      2 CAB         -5.7410     1.8450     2.0220 c3         1 8WR      -0.080433
      3 CAC         -7.7750     2.3250     0.6810 c3         1 8WR      -0.080433
      4 CAJ          4.6460    -2.8670     0.6400 ca         1 8WR      -0.121000
      5 CAK         -6.3570    -0.7070    -1.6260 cc         1 8WR       0.408400
      6 CAL          3.3030    -3.1880     0.5680 ca         1 8WR      -0.072000
      7 CAM          5.1010    -1.6530     0.1430 ca         1 8WR      -0.066000
      8 CAN          7.6980     2.6990    -0.8300 ca         1 8WR      -0.122500
      9 CAO          7.1040     1.9750     1.3870 ca         1 8WR      -0.122500
     10 CAP          6.6400     1.9750    -1.3520 ca         1 8WR      -0.065500
     11 CAQ          6.0580     1.2280     0.8630 ca         1 8WR      -0.065500
     12 CAR          2.8570    -1.1090    -0.5440 ca         1 8WR      -0.063000
     13 CAW          4.6670     0.4920    -1.0980 c          1 8WR       0.592300
     14 CAX          7.9290     2.7020     0.5410 ca         1 8WR      -0.084000
     15 CAY          2.3820    -2.3040    -0.0060 ca         1 8WR      -0.072800
     16 CAZ         -4.7420     0.3000    -0.5320 cc         1 8WR      -0.200800
     17 NAS         -5.0400    -0.7410    -1.3850 na         1 8WR      -0.300500
     18 NAT         -6.9410     0.2660    -0.9710 nd         1 8WR      -0.677000
     19 NAU         -0.0360    -0.5710     0.4600 ns         1 8WR      -0.411100
     20 NAV         -2.4790    -1.6200    -0.0200 ns         1 8WR      -0.415100
     21 OAD          4.1060     0.9160    -2.0890 o          1 8WR      -0.513100
     22 CBA          5.8200     1.2220    -0.5110 ca         1 8WR      -0.170600
     23 CBB          4.2050    -0.7720    -0.4580 ca         1 8WR      -0.165600
     24 CBC         -5.9620     0.9140    -0.2860 cd         1 8WR       0.306300
     25 CBD         -1.4550    -2.5070    -0.0300 c          1 8WR       0.575200
     26 CBE         -1.0640     0.3150     0.4890 c          1 8WR       0.581200
     27 CBF         -0.1000    -1.9120     0.1050 cc         1 8WR      -0.029600
     28 CBG         -2.3820    -0.2370     0.1080 cd         1 8WR      -0.065600
     29 CBH         -6.2640     2.0990     0.6030 c3         1 8WR      -0.069300
     30 H1          -4.5290     3.2950    -0.0260 hc         1 8WR       0.037478
     31 H2          -5.9850     3.5740    -0.9780 hc         1 8WR       0.037478
     32 H3          -5.8530     4.2280     0.6560 hc         1 8WR       0.037478
     33 H4          -5.9690     2.6970     2.6650 hc         1 8WR       0.037478
     34 H5          -6.2070     0.9600     2.4580 hc         1 8WR       0.037478
     35 H6          -4.6610     1.6960     2.0490 hc         1 8WR       0.037478
     36 H7          -8.2060     2.5420    -0.2960 hc         1 8WR       0.037478
     37 H8          -8.2940     1.4550     1.0870 hc         1 8WR       0.037478
     38 H9          -7.9820     3.1730     1.3370 hc         1 8WR       0.037478
     39 H10          0.7760    -3.7490    -0.2250 ha         1 8WR       0.216000
     40 H12         -3.2180     1.6390     0.1800 ha         1 8WR       0.227000
     41 H14          5.3450    -3.5640     1.0830 ha         1 8WR       0.121000
     42 H15         -6.8400    -1.4070    -2.2900 h5         1 8WR       0.059100
     43 H16          2.9560    -4.1350     0.9630 ha         1 8WR       0.120000
     44 H17          6.1550    -1.4150     0.1950 ha         1 8WR       0.126000
     45 H19          7.2750     1.9850     2.4550 ha         1 8WR       0.118000
     46 H20          6.4580     1.9800    -2.4190 ha         1 8WR       0.124500
     47 H21          5.4170     0.6710     1.5330 ha         1 8WR       0.124500
     48 H22          2.1830    -0.4370    -1.0620 ha         1 8WR       0.135000
     49 H23          8.7530     3.2730     0.9500 ha         1 8WR       0.115000
     50 H24         -4.3830    -1.3300    -1.8740 hn         1 8WR       0.357000
     51 H11          0.8620    -0.2020     0.7480 hn         1 8WR       0.337500
     52 H13         -3.4040    -2.0300    -0.0170 hn         1 8WR       0.330500
     53 CAI         -3.4170     0.6050    -0.0630 ce         1 8WR      -0.102200
     54 CAH          0.9750    -2.6970    -0.0630 cf         1 8WR      -0.157200
     55 OAE         -1.6400    -3.7040    -0.1460 o          1 8WR      -0.532000
     56 OAF         -0.8940     1.4810     0.7950 o          1 8WR      -0.527000
     57 H18          8.3410     3.2660    -1.4900 ha         1 8WR       0.118000
@<TRIPOS>BOND
     1     1    29 1   
     2     1    30 1   
     3     1    31 1   
     4     1    32 1   
     5     2    29 1   
     6     2    33 1   
     7     2    34 1   
     8     2    35 1   
     9     3    29 1   
    10     3    36 1   
    11     3    37 1   
    12     3    38 1   
    13     4     6 ar  
    14     4     7 ar  
    15     4    41 1   
    16     5    17 1   
    17     5    18 2   
    18     5    42 1   
    19     6    15 ar  
    20     6    43 1   
    21     7    23 ar  
    22     7    44 1   
    23     8    10 ar  
    24     8    14 ar  
    25     8    57 1   
    26     9    11 ar  
    27     9    14 ar  
    28     9    45 1   
    29    10    22 ar  
    30    10    46 1   
    31    11    22 ar  
    32    11    47 1   
    33    12    15 ar  
    34    12    23 ar  
    35    12    48 1   
    36    13    21 2   
    37    13    22 1   
    38    13    23 1   
    39    14    49 1   
    40    15    54 1   
    41    16    17 1   
    42    16    24 2   
    43    16    53 1   
    44    17    50 1   
    45    18    24 1   
    46    19    26 1   
    47    19    27 1   
    48    19    51 1   
    49    20    25 1   
    50    20    28 1   
    51    20    52 1   
    52    24    29 1   
    53    25    27 1   
    54    25    55 2   
    55    26    28 1   
    56    26    56 2   
    57    27    54 2   
    58    28    53 2   
    59    39    54 1   
    60    40    53 1   
@<TRIPOS>SUBSTRUCTURE
     1 8WR         1 TEMP              0 ****  ****    0 ROOT
