@<TRIPOS>MOLECULE
8WS
   38    37     1     0     0
SMALL
bcc


@<TRIPOS>ATOM
      1 C1           2.6270     3.4600     0.0290 c3         1 8WS      -0.177100
      2 N1           2.0650     1.2790     0.8960 ns         1 8WS      -0.564900
      3 O1           2.8520     1.4190    -1.2040 o          1 8WS      -0.607100
      4 C01          4.4860    -2.5730    -0.6060 c3         1 8WS       0.095300
      5 C02          3.2920    -0.7850     0.5290 c          1 8WS       0.670100
      6 N02         -4.2170    -0.5310    -0.3850 ns         1 8WS      -0.577900
      7 O02         -5.7920     0.4880     0.8570 o          1 8WS      -0.609100
      8 C03          1.9370    -0.1590     0.8880 c3         1 8WS       0.043700
      9 C04          0.7250    -0.6450     0.0910 c3         1 8WS      -0.095400
     10 C05         -0.5770    -0.0060     0.5580 c3         1 8WS      -0.070400
     11 C06         -1.7870    -0.5880    -0.1620 c3         1 8WS      -0.096400
     12 C07         -3.0870     0.0340     0.3220 c3         1 8WS       0.105000
     13 C08         -5.4900    -0.2550    -0.0700 c          1 8WS       0.665100
     14 C09         -6.5350    -0.9180    -0.9330 c3         1 8WS      -0.178100
     15 C10          2.5210     1.9690    -0.1620 c          1 8WS       0.674100
     16 H1           3.6760     3.7280     0.1680 hc         1 8WS       0.061033
     17 H1A          2.2730     3.9730    -0.8630 hc         1 8WS       0.061033
     18 H1B          2.0700     3.8250     0.8900 hc         1 8WS       0.061033
     19 HN1          1.8070     1.7740     1.7330 hn         1 8WS       0.321500
     20 H01          5.1680    -1.9490    -1.1850 h1         1 8WS       0.040700
     21 H01A         5.0140    -2.9240     0.2810 h1         1 8WS       0.040700
     22 H01B         4.2160    -3.4370    -1.2060 h1         1 8WS       0.040700
     23 HN01         2.4200    -2.1650    -0.6840 hn         1 8WS       0.316500
     24 HN02        -4.0310    -1.1210    -1.1800 hn         1 8WS       0.311500
     25 H03          1.7710    -0.4450     1.9320 h1         1 8WS       0.065700
     26 H04          0.8660    -0.4610    -0.9770 hc         1 8WS       0.054200
     27 H04A         0.6340    -1.7280     0.2240 hc         1 8WS       0.054200
     28 H05         -0.6880    -0.1550     1.6370 hc         1 8WS       0.045200
     29 H05A        -0.5430     1.0740     0.3970 hc         1 8WS       0.045200
     30 H06         -1.6820    -0.4270    -1.2400 hc         1 8WS       0.043700
     31 H06A        -1.8220    -1.6710    -0.0070 hc         1 8WS       0.043700
     32 H07         -3.0550     1.1190     0.1780 h1         1 8WS       0.051200
     33 H07A        -3.2010    -0.1390     1.3950 h1         1 8WS       0.051200
     34 H09         -7.2160    -1.4900    -0.3050 hc         1 8WS       0.059367
     35 H09A        -7.1250    -0.1540    -1.4400 hc         1 8WS       0.059367
     36 H09B        -6.1180    -1.5830    -1.6870 hc         1 8WS       0.059367
     37 N01          3.2760    -1.8680    -0.2530 ns         1 8WS      -0.564900
     38 O01          4.3230    -0.3390     1.0110 o          1 8WS      -0.598100
@<TRIPOS>BOND
     1     1    15 1   
     2     1    16 1   
     3     1    17 1   
     4     1    18 1   
     5     2     8 1   
     6     2    15 1   
     7     2    19 1   
     8     3    15 2   
     9     4    20 1   
    10     4    21 1   
    11     4    22 1   
    12     4    37 1   
    13     5     8 1   
    14     5    37 1   
    15     5    38 2   
    16     6    12 1   
    17     6    13 1   
    18     6    24 1   
    19     7    13 2   
    20     8     9 1   
    21     8    25 1   
    22     9    10 1   
    23     9    26 1   
    24     9    27 1   
    25    10    11 1   
    26    10    28 1   
    27    10    29 1   
    28    11    12 1   
    29    11    30 1   
    30    11    31 1   
    31    12    32 1   
    32    12    33 1   
    33    13    14 1   
    34    14    34 1   
    35    14    35 1   
    36    14    36 1   
    37    23    37 1   
@<TRIPOS>SUBSTRUCTURE
     1 8WS         1 TEMP              0 ****  ****    0 ROOT
