@<TRIPOS>MOLECULE
8WS
   38    37     1     0     0
SMALL
No Charge or Current Charge


@<TRIPOS>ATOM
      1 C1           2.3040     3.6810     0.2320 c3         1 8WS      -0.177100
      2 N1           2.1870     1.3270     0.8690 ns         1 8WS      -0.497900
      3 O1           2.2000     1.8720    -1.3550 o          1 8WS      -0.607100
      4 C01          4.5460    -2.8770    -0.5980 c3         1 8WS       0.095300
      5 C02          3.4390    -0.7630     0.2030 c          1 8WS       0.603100
      6 N02         -4.2230    -0.5140    -0.3450 ns         1 8WS      -0.510900
      7 O02         -5.8140     0.6510     0.7950 o          1 8WS      -0.609100
      8 C03          2.1030    -0.1520     0.7510 c3         1 8WS       0.043700
      9 C04          0.8250    -0.6400     0.0030 c3         1 8WS      -0.095400
     10 C05         -0.4940    -0.0270     0.5350 c3         1 8WS      -0.070400
     11 C06         -1.7460    -0.5830    -0.1790 c3         1 8WS      -0.096400
     12 C07         -3.0570     0.0300     0.3490 c3         1 8WS       0.105000
     13 C08         -5.5230    -0.1620    -0.0700 c          1 8WS       0.598100
     14 C09         -6.5710    -0.8630    -0.9250 c3         1 8WS      -0.178100
     15 C10          2.2260     2.2180    -0.1830 c          1 8WS       0.607100
     16 H1           3.1700     3.8200     0.8880 hc         1 8WS       0.061033
     17 H1A          2.3330     4.3620    -0.6260 hc         1 8WS       0.061033
     18 H1B          1.4660     3.9080     0.9000 hc         1 8WS       0.061033
     19 HN1          2.2310     1.7320     1.7970 hn         1 8WS       0.321500
     20 H01          4.8620    -2.4580    -1.5620 h1         1 8WS       0.040700
     21 H01A         5.3800    -2.8280     0.1130 h1         1 8WS       0.040700
     22 H01B         4.2510    -3.9250    -0.7390 h1         1 8WS       0.040700
     23 HN01         2.5350    -2.6010     0.0890 hn         1 8WS       0.316500
     24 HN02        -4.0790    -1.1970    -1.0800 hn         1 8WS       0.311500
     25 H03          2.0230    -0.5370     1.7760 h1         1 8WS       0.065700
     26 H04          0.9180    -0.4200    -1.0670 hc         1 8WS       0.054200
     27 H04A         0.7510    -1.7300     0.0890 hc         1 8WS       0.054200
     28 H05         -0.5750    -0.2250     1.6110 hc         1 8WS       0.045200
     29 H05A        -0.4730     1.0620     0.4100 hc         1 8WS       0.045200
     30 H06         -1.6650    -0.3860    -1.2550 hc         1 8WS       0.043700
     31 H06A        -1.7820    -1.6720    -0.0510 hc         1 8WS       0.043700
     32 H07         -3.0370     1.1190     0.2080 h1         1 8WS       0.051200
     33 H07A        -3.1540    -0.1780     1.4230 h1         1 8WS       0.051200
     34 H09         -7.5940    -0.5560    -0.6770 hc         1 8WS       0.059367
     35 H09A        -6.3430    -0.6900    -1.9830 hc         1 8WS       0.059367
     36 H09B        -6.4400    -1.9470    -0.8330 hc         1 8WS       0.059367
     37 N01          3.4080    -2.1150    -0.0790 ns         1 8WS      -0.497900
     38 O01          4.4640    -0.1100     0.0380 o          1 8WS      -0.598100
@<TRIPOS>BOND
     1     1    15 1   
     2     1    16 1   
     3     1    17 1   
     4     1    18 1   
     5     2     8 1   
     6     2    15 1   
     7     2    19 1   
     8     3    15 2   
     9     4    20 1   
    10     4    21 1   
    11     4    22 1   
    12     4    37 1   
    13     5     8 1   
    14     5    37 1   
    15     5    38 2   
    16     6    12 1   
    17     6    13 1   
    18     6    24 1   
    19     7    13 2   
    20     8     9 1   
    21     8    25 1   
    22     9    10 1   
    23     9    26 1   
    24     9    27 1   
    25    10    11 1   
    26    10    28 1   
    27    10    29 1   
    28    11    12 1   
    29    11    30 1   
    30    11    31 1   
    31    12    32 1   
    32    12    33 1   
    33    13    14 1   
    34    14    34 1   
    35    14    35 1   
    36    14    36 1   
    37    23    37 1   
@<TRIPOS>SUBSTRUCTURE
     1 8WS         1 TEMP              0 ****  ****    0 ROOT
