@<TRIPOS>MOLECULE
8WT
   19    20     1     0     0
SMALL
No Charge or Current Charge


@<TRIPOS>ATOM
      1 C4          -2.2520    -0.7560    -0.0570 ca         1 8WT       0.407900
      2 C5          -2.8030     1.4670    -0.0140 ca         1 8WT       0.151900
      3 C6          -0.5690     0.9580     0.0050 ca         1 8WT       0.267000
      4 N1           0.2540    -1.1050    -0.0370 na         1 8WT      -0.282600
      5 N2          -2.6570    -2.0510    -0.0840 nv         1 8WT      -1.070900
      6 C3          -0.9070    -0.3760    -0.0300 ca         1 8WT      -0.257200
      7 N3          -3.2180     0.1750    -0.0490 nb         1 8WT      -0.274000
      8 C1           3.8240     0.9860     0.0440 c3         1 8WT       0.046900
      9 C2           1.2610    -0.1620    -0.0010 cc         1 8WT       0.445700
     10 N4          -1.5210     1.9100     0.0140 nb         1 8WT      -0.157000
     11 N5           0.8210     1.1040     0.0250 nd         1 8WT      -0.659700
     12 H1          -3.5800     2.2290    -0.0080 h5         1 8WT       0.049100
     13 H2           0.3730    -2.1090    -0.0800 hn         1 8WT       0.365000
     14 H3          -1.9950    -2.7740     0.1850 hn         1 8WT       0.488500
     15 H4          -3.6390    -2.2510     0.0930 hn         1 8WT       0.488500
     16 H5           4.9090     0.8250     0.0460 h1         1 8WT       0.078367
     17 H6           3.5510     1.5810    -0.8360 h1         1 8WT       0.078367
     18 H7           3.5410     1.5340     0.9520 h1         1 8WT       0.078367
     19 S1           2.9510    -0.6430    -0.0050 ss         1 8WT      -0.245200
@<TRIPOS>BOND
     1     1     5 1   
     2     1     6 ar  
     3     1     7 ar  
     4     2     7 ar  
     5     2    10 ar  
     6     2    12 1   
     7     3     6 ar  
     8     3    10 ar  
     9     3    11 1   
    10     4     6 1   
    11     4     9 1   
    12     4    13 1   
    13     5    14 1   
    14     5    15 1   
    15     8    16 1   
    16     8    17 1   
    17     8    18 1   
    18     8    19 1   
    19     9    11 2   
    20     9    19 1   
@<TRIPOS>SUBSTRUCTURE
     1 8WT         1 TEMP              0 ****  ****    0 ROOT
