@<TRIPOS>MOLECULE
8WT
   19    20     1     0     0
SMALL
abcg2


@<TRIPOS>ATOM
      1 C4          -2.2440    -0.7830    -0.0320 ca         1 8WT       0.407900
      2 C5          -2.6960     1.4730    -0.0110 ca         1 8WT       0.151900
      3 C6          -0.5510     0.9220     0.0040 ca         1 8WT       0.267000
      4 N1           0.3050    -1.1020    -0.0180 na         1 8WT      -0.282600
      5 N2          -2.6890    -2.0500    -0.0840 nv         1 8WT      -1.070900
      6 C3          -0.8910    -0.4270    -0.0170 ca         1 8WT      -0.257200
      7 N3          -3.1320     0.2140    -0.0280 nb         1 8WT      -0.274000
      8 C1           3.7280     1.0140     0.0370 c3         1 8WT       0.046900
      9 C2           1.2730    -0.1550     0.0020 cc         1 8WT       0.445700
     10 N4          -1.4530     1.9090     0.0080 nb         1 8WT      -0.157000
     11 N5           0.8050     1.0690     0.0160 nd         1 8WT      -0.659700
     12 H1          -3.4730     2.2300    -0.0090 h5         1 8WT       0.049100
     13 H2           0.4490    -2.1000    -0.0360 hn         1 8WT       0.365000
     14 H3          -2.0790    -2.8180     0.1360 hn         1 8WT       0.488500
     15 H4          -3.6710    -2.2110     0.0600 hn         1 8WT       0.488500
     16 H5           4.7990     0.8260     0.0330 h1         1 8WT       0.078367
     17 H6           3.4590     1.5910    -0.8430 h1         1 8WT       0.078367
     18 H7           3.4590     1.5550     0.9400 h1         1 8WT       0.078367
     19 S1           2.9470    -0.6140     0.0030 ss         1 8WT      -0.245200
@<TRIPOS>BOND
     1     1     5 1   
     2     1     6 ar  
     3     1     7 ar  
     4     2     7 ar  
     5     2    10 ar  
     6     2    12 1   
     7     3     6 ar  
     8     3    10 ar  
     9     3    11 1   
    10     4     6 1   
    11     4     9 1   
    12     4    13 1   
    13     5    14 1   
    14     5    15 1   
    15     8    16 1   
    16     8    17 1   
    17     8    18 1   
    18     8    19 1   
    19     9    11 2   
    20     9    19 1   
@<TRIPOS>SUBSTRUCTURE
     1 8WT         1 TEMP              0 ****  ****    0 ROOT
