@<TRIPOS>MOLECULE
8WU
   49    51     1     0     0
SMALL
No Charge or Current Charge


@<TRIPOS>ATOM
      1 C01          7.6140     1.4840     1.5290 c3         1 8WU       0.157900
      2 O02          7.2260     0.3470     0.7340 os         1 8WU      -0.365100
      3 C03          5.9140     0.1290     0.3480 ca         1 8WU       0.061100
      4 C04          4.8630     1.0020     0.7040 ca         1 8WU      -0.162000
      5 C05          3.5480     0.7310     0.2840 ca         1 8WU      -0.089000
      6 C06          3.2610    -0.4110    -0.4950 ca         1 8WU      -0.070800
      7 C07          1.8740    -0.7210    -0.9540 ce         1 8WU      -0.079200
      8 C08          0.7140    -0.0420    -0.7070 cf         1 8WU      -0.309200
      9 C09         -0.6250    -0.4520    -1.2160 c          1 8WU       0.592900
     10 O10         -0.7530    -1.4580    -1.9030 o          1 8WU      -0.515100
     11 C11         -1.7950     0.4270    -0.8960 ca         1 8WU      -0.239600
     12 C12         -1.6950     1.8180    -1.0850 ca         1 8WU      -0.004000
     13 C13         -2.7860     2.6530    -0.7990 ca         1 8WU      -0.252000
     14 C14         -3.9950     2.1080    -0.3210 ca         1 8WU       0.212100
     15 O15         -5.0920     2.9000    -0.0370 os         1 8WU      -0.337100
     16 C16         -5.0780     4.3270    -0.2110 c3         1 8WU       0.148900
     17 C17         -4.0970     0.7170    -0.1190 ca         1 8WU      -0.198800
     18 C18         -5.3480     0.0820     0.3650 ce         1 8WU      -0.110200
     19 C19         -5.3400    -1.2080     0.7460 c2         1 8WU      -0.272200
     20 C20         -4.0530    -2.0150     0.7420 c6         1 8WU       0.228200
     21 C21         -3.3940    -1.9670     2.1460 c3         1 8WU      -0.097100
     22 C22         -4.3220    -3.4840     0.3300 c3         1 8WU      -0.097100
     23 O23         -3.0940    -1.4830    -0.2000 os         1 8WU      -0.324100
     24 C24         -2.9940    -0.1180    -0.3990 ca         1 8WU       0.243100
     25 C25          4.3150    -1.2780    -0.8470 ca         1 8WU      -0.102000
     26 C26          5.6290    -1.0110    -0.4300 ca         1 8WU       0.115100
     27 O27          6.6390    -1.8610    -0.7790 oh         1 8WU      -0.533100
     28 H1           7.3780     2.4220     1.0100 h1         1 8WU       0.043367
     29 H2           7.0970     1.4780     2.4970 h1         1 8WU       0.043367
     30 H3           8.6940     1.4640     1.7200 h1         1 8WU       0.043367
     31 H4           5.0450     1.8910     1.3010 ha         1 8WU       0.117000
     32 H5           2.7590     1.4200     0.5700 ha         1 8WU       0.116000
     33 H6           1.8100    -1.6220    -1.5690 ha         1 8WU       0.194000
     34 H7           0.7310     0.8550    -0.0930 ha         1 8WU       0.180000
     35 H8          -0.7750     2.2560    -1.4700 ha         1 8WU       0.116000
     36 H9          -2.6740     3.7200    -0.9640 ha         1 8WU       0.122000
     37 H10         -4.3080     4.7900     0.4190 h1         1 8WU       0.044033
     38 H11         -4.8840     4.5920    -1.2580 h1         1 8WU       0.044033
     39 H12         -6.0490     4.7540     0.0720 h1         1 8WU       0.044033
     40 H13         -6.2580     0.6880     0.3910 ha         1 8WU       0.195000
     41 H14         -6.2440    -1.7040     1.1030 ha         1 8WU       0.188000
     42 H15         -4.0490    -2.4110     2.9050 hc         1 8WU       0.048533
     43 H16         -2.4460    -2.5170     2.1600 hc         1 8WU       0.048533
     44 H17         -3.1870    -0.9350     2.4510 hc         1 8WU       0.048533
     45 H18         -4.7820    -3.5350    -0.6630 hc         1 8WU       0.048533
     46 H19         -3.3930    -4.0660     0.2980 hc         1 8WU       0.048533
     47 H20         -4.9990    -3.9780     1.0360 hc         1 8WU       0.048533
     48 H21          4.1190    -2.1640    -1.4460 ha         1 8WU       0.135000
     49 H22          7.4620    -1.4910    -0.3880 ho         1 8WU       0.481000
@<TRIPOS>BOND
     1     1     2 1   
     2     1    28 1   
     3     1    29 1   
     4     1    30 1   
     5     2     3 1   
     6     3     4 ar  
     7     3    26 ar  
     8     4     5 ar  
     9     4    31 1   
    10     5     6 ar  
    11     5    32 1   
    12     6     7 1   
    13     6    25 ar  
    14     7     8 2   
    15     7    33 1   
    16     8     9 1   
    17     8    34 1   
    18     9    10 2   
    19     9    11 1   
    20    11    12 ar  
    21    11    24 ar  
    22    12    13 ar  
    23    12    35 1   
    24    13    14 ar  
    25    13    36 1   
    26    14    15 1   
    27    14    17 ar  
    28    15    16 1   
    29    16    37 1   
    30    16    38 1   
    31    16    39 1   
    32    17    18 1   
    33    17    24 ar  
    34    18    19 2   
    35    18    40 1   
    36    19    20 1   
    37    19    41 1   
    38    20    21 1   
    39    20    22 1   
    40    20    23 1   
    41    21    42 1   
    42    21    43 1   
    43    21    44 1   
    44    22    45 1   
    45    22    46 1   
    46    22    47 1   
    47    23    24 1   
    48    25    26 ar  
    49    25    48 1   
    50    26    27 1   
    51    27    49 1   
@<TRIPOS>SUBSTRUCTURE
     1 8WU         1 TEMP              0 ****  ****    0 ROOT
