@<TRIPOS>MOLECULE
8WU
   49    51     1     0     0
SMALL
bcc


@<TRIPOS>ATOM
      1 C01          7.6170     1.5400     1.3070 c3         1 8WU       0.134700
      2 O02          7.2330     0.4910     0.4370 os         1 8WU      -0.341900
      3 C03          5.9240     0.2730     0.2210 ca         1 8WU       0.061100
      4 C04          4.8810     1.0040     0.7770 ca         1 8WU      -0.180000
      5 C05          3.5650     0.6890     0.4760 ca         1 8WU      -0.107000
      6 C06          3.2640    -0.3650    -0.3850 ca         1 8WU      -0.070800
      7 C07          1.9060    -0.7410    -0.7440 ce         1 8WU      -0.029200
      8 C08          0.7760    -0.0990    -0.4090 cf         1 8WU      -0.259200
      9 C09         -0.5460    -0.6070    -0.8260 c          1 8WU       0.592900
     10 O10         -0.6790    -1.7060    -1.3380 o          1 8WU      -0.515100
     11 C11         -1.7030     0.2910    -0.5960 ca         1 8WU      -0.239600
     12 C12         -1.5520     1.6720    -0.7210 ca         1 8WU      -0.022000
     13 C13         -2.6090     2.5520    -0.5830 ca         1 8WU      -0.270000
     14 C14         -3.8770     2.0500    -0.2970 ca         1 8WU       0.212100
     15 O15         -4.9660     2.8110    -0.1450 os         1 8WU      -0.313900
     16 C16         -4.8560     4.2130    -0.3150 c3         1 8WU       0.125700
     17 C17         -4.0720     0.6690    -0.1480 ca         1 8WU      -0.198800
     18 C18         -5.3780     0.0770     0.1000 ce         1 8WU      -0.060200
     19 C19         -5.4610    -1.1970     0.4760 c2         1 8WU      -0.222200
     20 C20         -4.2110    -2.0010     0.7000 c6         1 8WU       0.205000
     21 C21         -3.7570    -1.8790     2.1520 c3         1 8WU      -0.097100
     22 C22         -4.4170    -3.4550     0.3120 c3         1 8WU      -0.097100
     23 O23         -3.1650    -1.5180    -0.1680 os         1 8WU      -0.300900
     24 C24         -2.9860    -0.1980    -0.2950 ca         1 8WU       0.243100
     25 C25          4.3220    -1.1010    -0.9340 ca         1 8WU      -0.120000
     26 C26          5.6370    -0.7940    -0.6480 ca         1 8WU       0.115100
     27 O27          6.6200    -1.5260    -1.2080 oh         1 8WU      -0.494100
     28 H1           7.2630     2.5100     0.9500 h1         1 8WU       0.043367
     29 H2           7.2460     1.3770     2.3220 h1         1 8WU       0.043367
     30 H3           8.7030     1.5450     1.3230 h1         1 8WU       0.043367
     31 H4           5.0820     1.8260     1.4500 ha         1 8WU       0.135000
     32 H5           2.7790     1.2780     0.9290 ha         1 8WU       0.134000
     33 H6           1.8180    -1.6330    -1.3580 ha         1 8WU       0.144000
     34 H7           0.8040     0.8040     0.1860 ha         1 8WU       0.130000
     35 H8          -0.5790     2.0820    -0.9570 ha         1 8WU       0.134000
     36 H9          -2.4310     3.6110    -0.7010 ha         1 8WU       0.140000
     37 H10         -4.1810     4.6580     0.4200 h1         1 8WU       0.044033
     38 H11         -4.5110     4.4730    -1.3180 h1         1 8WU       0.044033
     39 H12         -5.8530     4.6180    -0.1670 h1         1 8WU       0.044033
     40 H13         -6.2700     0.6720    -0.0400 ha         1 8WU       0.145000
     41 H14         -6.4150    -1.6730     0.6640 ha         1 8WU       0.138000
     42 H15         -4.5430    -2.2390     2.8160 hc         1 8WU       0.048533
     43 H16         -2.8610    -2.4760     2.3340 hc         1 8WU       0.048533
     44 H17         -3.5470    -0.8420     2.4180 hc         1 8WU       0.048533
     45 H18         -4.7340    -3.5480    -0.7270 hc         1 8WU       0.048533
     46 H19         -3.5010    -4.0310     0.4500 hc         1 8WU       0.048533
     47 H20         -5.1900    -3.8970     0.9400 hc         1 8WU       0.048533
     48 H21          4.1140    -1.9290    -1.6030 ha         1 8WU       0.153000
     49 H22          7.4830    -1.2100    -0.9150 ho         1 8WU       0.442000
@<TRIPOS>BOND
     1     1     2 1   
     2     1    28 1   
     3     1    29 1   
     4     1    30 1   
     5     2     3 1   
     6     3     4 ar  
     7     3    26 ar  
     8     4     5 ar  
     9     4    31 1   
    10     5     6 ar  
    11     5    32 1   
    12     6     7 1   
    13     6    25 ar  
    14     7     8 2   
    15     7    33 1   
    16     8     9 1   
    17     8    34 1   
    18     9    10 2   
    19     9    11 1   
    20    11    12 ar  
    21    11    24 ar  
    22    12    13 ar  
    23    12    35 1   
    24    13    14 ar  
    25    13    36 1   
    26    14    15 1   
    27    14    17 ar  
    28    15    16 1   
    29    16    37 1   
    30    16    38 1   
    31    16    39 1   
    32    17    18 1   
    33    17    24 ar  
    34    18    19 2   
    35    18    40 1   
    36    19    20 1   
    37    19    41 1   
    38    20    21 1   
    39    20    22 1   
    40    20    23 1   
    41    21    42 1   
    42    21    43 1   
    43    21    44 1   
    44    22    45 1   
    45    22    46 1   
    46    22    47 1   
    47    23    24 1   
    48    25    26 ar  
    49    25    48 1   
    50    26    27 1   
    51    27    49 1   
@<TRIPOS>SUBSTRUCTURE
     1 8WU         1 TEMP              0 ****  ****    0 ROOT
