@<TRIPOS>MOLECULE
8WW
   32    34     1     0     0
SMALL
No Charge or Current Charge


@<TRIPOS>ATOM
      1 N1          -1.4160     3.0040    -1.1970 nv         1 8WW      -1.046900
      2 N3          -3.4000    -1.6480     0.4770 na         1 8WW      -0.284600
      3 C4           1.7500    -0.8200     0.2890 c3         1 8WW      -0.025100
      4 C5           3.1790    -0.3490     0.0580 ca         1 8WW      -0.084300
      5 C6           3.4250     0.8860    -0.5730 ca         1 8WW      -0.104500
      6 C7           4.7440     1.3260    -0.7810 ca         1 8WW      -0.109500
      7 C8           5.8240     0.5330    -0.3600 ca         1 8WW      -0.109000
      8 C10          4.2660    -1.1390     0.4800 ca         1 8WW      -0.104500
      9 C13         -3.4610     0.1860    -0.7500 ca         1 8WW       0.283000
     10 C1          -1.8640     1.8090    -0.7300 ca         1 8WW       0.370900
     11 N2          -1.0770     1.2050     0.1830 nb         1 8WW      -0.262000
     12 C2          -1.5120     0.0160     0.6510 ca         1 8WW       0.302300
     13 S1          -0.5610    -0.8710     1.8830 ss         1 8WW      -0.388300
     14 C3           1.1800    -0.2900     1.6210 c3         1 8WW       0.069600
     15 C9           5.5850    -0.7000     0.2710 ca         1 8WW      -0.109500
     16 C11         -2.7280    -0.4970     0.1800 ca         1 8WW      -0.243200
     17 C12         -4.5560    -1.6440    -0.2950 cc         1 8WW       0.440700
     18 N4          -4.6190    -0.5290    -1.0580 nd         1 8WW      -0.652700
     19 N5          -3.0370     1.3690    -1.2310 nb         1 8WW      -0.194000
     20 H1          -0.4590     3.2840    -0.9930 hn         1 8WW       0.484500
     21 H2          -1.8540     3.4120    -2.0200 hn         1 8WW       0.484500
     22 H3          -3.1280    -2.3740     1.1300 hn         1 8WW       0.368000
     23 H4           1.1110    -0.4930    -0.5390 hc         1 8WW       0.059700
     24 H5           1.7060    -1.9160     0.2940 hc         1 8WW       0.059700
     25 H6           2.5940     1.5070    -0.9000 ha         1 8WW       0.111000
     26 H7           4.9280     2.2800    -1.2690 ha         1 8WW       0.112500
     27 H8           6.8450     0.8730    -0.5210 ha         1 8WW       0.113000
     28 H9           4.0900    -2.0940     0.9710 ha         1 8WW       0.111000
     29 H10          1.8030    -0.6560     2.4480 h1         1 8WW       0.084700
     30 H11          1.2110     0.8070     1.6350 h1         1 8WW       0.084700
     31 H12          6.4210    -1.3140     0.5990 ha         1 8WW       0.112500
     32 H13         -5.2830    -2.4460    -0.2600 h5         1 8WW       0.066800
@<TRIPOS>BOND
     1     1    10 1   
     2     1    20 1   
     3     1    21 1   
     4     2    16 1   
     5     2    17 1   
     6     2    22 1   
     7     3     4 1   
     8     3    14 1   
     9     3    23 1   
    10     3    24 1   
    11     4     5 ar  
    12     4     8 ar  
    13     5     6 ar  
    14     5    25 1   
    15     6     7 ar  
    16     6    26 1   
    17     7    15 ar  
    18     7    27 1   
    19     8    15 ar  
    20     8    28 1   
    21     9    16 ar  
    22     9    18 1   
    23     9    19 ar  
    24    10    11 ar  
    25    10    19 ar  
    26    11    12 ar  
    27    12    13 1   
    28    12    16 ar  
    29    13    14 1   
    30    14    29 1   
    31    14    30 1   
    32    15    31 1   
    33    17    18 2   
    34    17    32 1   
@<TRIPOS>SUBSTRUCTURE
     1 8WW         1 TEMP              0 ****  ****    0 ROOT
