@<TRIPOS>MOLECULE
8WW
   32    34     1     0     0
SMALL
bcc


@<TRIPOS>ATOM
      1 N1          -0.9740     2.6200    -1.4130 nv         1 8WW      -0.936500
      2 N3          -3.6930    -1.4680     0.6620 na         1 8WW      -0.234300
      3 C4           1.8670    -1.0390     0.0930 c3         1 8WW      -0.025100
      4 C5           3.2060    -0.3630    -0.0090 ca         1 8WW      -0.084300
      5 C6           3.2950     0.9520    -0.4630 ca         1 8WW      -0.122500
      6 C7           4.5200     1.5990    -0.5310 ca         1 8WW      -0.127500
      7 C8           5.6790     0.9380    -0.1410 ca         1 8WW      -0.127000
      8 C10          4.3730    -1.0140     0.3840 ca         1 8WW      -0.122500
      9 C13         -3.4620     0.3400    -0.5730 ca         1 8WW       0.611300
     10 C1          -1.6130     1.5450    -0.8840 ca         1 8WW       0.896900
     11 N2          -0.8640     0.7580    -0.0850 nb         1 8WW      -0.788000
     12 C2          -1.4210    -0.2820     0.4970 ca         1 8WW       0.630600
     13 S1          -0.4980    -1.3330     1.5460 ss         1 8WW      -0.340400
     14 C3           1.1740    -0.6500     1.3950 c3         1 8WW       0.021700
     15 C9           5.6020    -0.3700     0.3180 ca         1 8WW      -0.127500
     16 C11         -2.7690    -0.5330     0.2710 ca         1 8WW      -0.373800
     17 C12         -4.8480    -1.1290     0.0620 cc         1 8WW       0.440700
     18 N4          -4.7620    -0.0560    -0.6870 nd         1 8WW      -0.652700
     19 N5          -2.8990     1.3890    -1.1660 nb         1 8WW      -0.720000
     20 H1           0.0320     2.5980    -1.4260 hn         1 8WW       0.429300
     21 H2          -1.4080     3.0730    -2.1990 hn         1 8WW       0.429300
     22 H3          -3.5570    -2.2610     1.2690 hn         1 8WW       0.317700
     23 H4           1.2410    -0.7460    -0.7510 hc         1 8WW       0.059700
     24 H5           1.9830    -2.1230     0.0530 hc         1 8WW       0.059700
     25 H6           2.3920     1.4690    -0.7680 ha         1 8WW       0.129000
     26 H7           4.5730     2.6180    -0.8930 ha         1 8WW       0.130500
     27 H8           6.6370     1.4400    -0.2000 ha         1 8WW       0.131000
     28 H9           4.3200    -2.0370     0.7400 ha         1 8WW       0.129000
     29 H10          1.7120    -1.0470     2.2570 h1         1 8WW       0.084700
     30 H11          1.1130     0.4320     1.5080 h1         1 8WW       0.084700
     31 H12          6.5010    -0.8920     0.6190 ha         1 8WW       0.130500
     32 H13         -5.7450    -1.7120     0.2080 h5         1 8WW       0.066800
@<TRIPOS>BOND
     1     1    10 1   
     2     1    20 1   
     3     1    21 1   
     4     2    16 1   
     5     2    17 1   
     6     2    22 1   
     7     3     4 1   
     8     3    14 1   
     9     3    23 1   
    10     3    24 1   
    11     4     5 ar  
    12     4     8 ar  
    13     5     6 ar  
    14     5    25 1   
    15     6     7 ar  
    16     6    26 1   
    17     7    15 ar  
    18     7    27 1   
    19     8    15 ar  
    20     8    28 1   
    21     9    16 ar  
    22     9    18 1   
    23     9    19 ar  
    24    10    11 ar  
    25    10    19 ar  
    26    11    12 ar  
    27    12    13 1   
    28    12    16 ar  
    29    13    14 1   
    30    14    29 1   
    31    14    30 1   
    32    15    31 1   
    33    17    18 2   
    34    17    32 1   
@<TRIPOS>SUBSTRUCTURE
     1 8WW         1 TEMP              0 ****  ****    0 ROOT
