@<TRIPOS>MOLECULE
8WX
   36    38     1     0     0
SMALL
No Charge or Current Charge


@<TRIPOS>ATOM
      1 C10         -4.7400     0.2990    -0.6100 c3         1 8WX       0.069900
      2 C11         -0.1600    -2.2980    -0.1230 cc         1 8WX      -0.231000
      3 C12         -1.5160    -2.7840    -0.2180 cc         1 8WX      -0.093000
      4 C13         -2.8660     2.9940    -0.5280 c3         1 8WX      -0.019900
      5 C14          2.5100    -1.2330     0.0740 c3         1 8WX       0.206900
      6 C15          3.7400    -0.3380     0.1500 ca         1 8WX      -0.099300
      7 C16          4.2030     0.1290     1.3970 ca         1 8WX      -0.080000
      8 C17          4.4230     0.0330    -1.0250 ca         1 8WX      -0.080000
      9 C18         -5.4230     0.0530     0.6670 c1         1 8WX       0.291900
     10 C19          5.3390     0.9540     1.4660 ca         1 8WX      -0.114500
     11 C20          5.5590     0.8580    -0.9550 ca         1 8WX      -0.114500
     12 C21          6.0170     1.3190     0.2910 ca         1 8WX      -0.095000
     13 C5          -3.2360     0.4350    -0.4890 cd         1 8WX      -0.199300
     14 C6          -1.0470    -0.0820    -0.2820 cd         1 8WX      -0.086000
     15 C7          -2.4290     1.5560    -0.4520 cc         1 8WX       0.087400
     16 C8           0.0880    -0.9380    -0.1530 cd         1 8WX       0.193100
     17 C9          -2.6220    -1.9480    -0.3440 cd         1 8WX      -0.154000
     18 N2          -2.3160    -0.5820    -0.3800 na         1 8WX       0.157100
     19 N3          -1.0910     1.2390    -0.3280 nc         1 8WX      -0.261600
     20 N4          -5.9530    -0.1670     1.6820 n1         1 8WX      -0.452000
     21 O1           1.3480    -0.3980    -0.0610 os         1 8WX      -0.301100
     22 H1          -4.9980    -0.5100    -1.3020 hc         1 8WX       0.080700
     23 H2          -5.1650     1.2100    -1.0460 hc         1 8WX       0.080700
     24 H3           0.6340    -3.0310    -0.0270 ha         1 8WX       0.127000
     25 H4          -1.6680    -3.8590    -0.1870 ha         1 8WX       0.130000
     26 H5          -2.0280     3.6780    -0.3500 hc         1 8WX       0.049033
     27 H6          -3.2820     3.2190    -1.5170 hc         1 8WX       0.049033
     28 H7          -3.6370     3.2050     0.2210 hc         1 8WX       0.049033
     29 H8           2.6020    -1.9090    -0.7860 h1         1 8WX       0.043700
     30 H9           2.4450    -1.8420     0.9850 h1         1 8WX       0.043700
     31 H10          3.6820    -0.1470     2.3110 ha         1 8WX       0.114500
     32 H11          4.0730    -0.3180    -1.9940 ha         1 8WX       0.114500
     33 H14          5.6920     1.3120     2.4310 ha         1 8WX       0.115000
     34 H15          6.0820     1.1420    -1.8650 ha         1 8WX       0.115000
     35 H16          6.8960     1.9590     0.3450 ha         1 8WX       0.113000
     36 H17         -3.6540    -2.2680    -0.4150 h4         1 8WX       0.148000
@<TRIPOS>BOND
     1     1     9 1   
     2     1    13 1   
     3     1    22 1   
     4     1    23 1   
     5     2     3 1   
     6     2    16 2   
     7     2    24 1   
     8     3    17 2   
     9     3    25 1   
    10     4    15 1   
    11     4    26 1   
    12     4    27 1   
    13     4    28 1   
    14     5     6 1   
    15     5    21 1   
    16     5    29 1   
    17     5    30 1   
    18     6     7 ar  
    19     6     8 ar  
    20     7    10 ar  
    21     7    31 1   
    22     8    11 ar  
    23     8    32 1   
    24     9    20 3   
    25    10    12 ar  
    26    10    33 1   
    27    11    12 ar  
    28    11    34 1   
    29    12    35 1   
    30    13    15 2   
    31    13    18 1   
    32    14    16 1   
    33    14    18 1   
    34    14    19 2   
    35    15    19 1   
    36    16    21 1   
    37    17    18 1   
    38    17    36 1   
@<TRIPOS>SUBSTRUCTURE
     1 8WX         1 TEMP              0 ****  ****    0 ROOT
