@<TRIPOS>MOLECULE
8WX
   36    38     1     0     0
SMALL
bcc


@<TRIPOS>ATOM
      1 C10         -4.5970     0.3320    -0.5490 c3         1 8WX       0.069900
      2 C11         -0.1740    -2.3430    -0.1270 cc         1 8WX      -0.249000
      3 C12         -1.5130    -2.8050    -0.2090 cc         1 8WX      -0.111000
      4 C13         -2.7100     3.0170    -0.4920 c3         1 8WX      -0.019900
      5 C14          2.4330    -1.2460     0.0420 c3         1 8WX       0.183700
      6 C15          3.6310    -0.3500     0.1100 ca         1 8WX      -0.099300
      7 C16          3.9930     0.2480     1.3150 ca         1 8WX      -0.098000
      8 C17          4.3770    -0.0780    -1.0320 ca         1 8WX      -0.098000
      9 C18         -5.2020    -0.0760     0.7170 c1         1 8WX       0.202700
     10 C19          5.0850     1.1010     1.3770 ca         1 8WX      -0.132500
     11 C20          5.4720     0.7730    -0.9730 ca         1 8WX      -0.132500
     12 C21          5.8270     1.3650     0.2320 ca         1 8WX      -0.113000
     13 C5          -3.1210     0.4780    -0.4470 cd         1 8WX      -0.199300
     14 C6          -1.0040    -0.0950    -0.2670 cd         1 8WX      -0.035300
     15 C7          -2.3060     1.5860    -0.4220 cc         1 8WX       0.087400
     16 C8           0.0880    -1.0000    -0.1570 cd         1 8WX       0.193100
     17 C9          -2.5510    -1.9440    -0.3140 cd         1 8WX      -0.121300
     18 N2          -2.2790    -0.6020    -0.3430 na         1 8WX       0.055700
     19 N3          -1.0040     1.2220    -0.3150 nc         1 8WX      -0.261600
     20 N4          -5.6600    -0.4040     1.7200 n1         1 8WX      -0.362800
     21 O1           1.2860    -0.4110    -0.0930 os         1 8WX      -0.277900
     22 H1          -4.8880    -0.3930    -1.3160 hc         1 8WX       0.080700
     23 H2          -5.0460     1.2810    -0.8450 hc         1 8WX       0.080700
     24 H3           0.6190    -3.0730    -0.0460 ha         1 8WX       0.145000
     25 H4          -1.7120    -3.8670    -0.1860 ha         1 8WX       0.148000
     26 H5          -2.4490     3.5390     0.4300 hc         1 8WX       0.049033
     27 H6          -2.1990     3.5250    -1.3100 hc         1 8WX       0.049033
     28 H7          -3.7820     3.1320    -0.6440 hc         1 8WX       0.049033
     29 H8           2.5070    -1.9270    -0.8120 h1         1 8WX       0.043700
     30 H9           2.3500    -1.8510     0.9510 h1         1 8WX       0.043700
     31 H10          3.4210     0.0390     2.2110 ha         1 8WX       0.132500
     32 H11          4.1040    -0.5390    -1.9740 ha         1 8WX       0.132500
     33 H14          5.3590     1.5580     2.3190 ha         1 8WX       0.133000
     34 H15          6.0490     0.9730    -1.8670 ha         1 8WX       0.133000
     35 H16          6.6820     2.0270     0.2810 ha         1 8WX       0.131000
     36 H17         -3.5840    -2.2500    -0.3820 h4         1 8WX       0.166000
@<TRIPOS>BOND
     1     1     9 1   
     2     1    13 1   
     3     1    22 1   
     4     1    23 1   
     5     2     3 1   
     6     2    16 2   
     7     2    24 1   
     8     3    17 2   
     9     3    25 1   
    10     4    15 1   
    11     4    26 1   
    12     4    27 1   
    13     4    28 1   
    14     5     6 1   
    15     5    21 1   
    16     5    29 1   
    17     5    30 1   
    18     6     7 ar  
    19     6     8 ar  
    20     7    10 ar  
    21     7    31 1   
    22     8    11 ar  
    23     8    32 1   
    24     9    20 3   
    25    10    12 ar  
    26    10    33 1   
    27    11    12 ar  
    28    11    34 1   
    29    12    35 1   
    30    13    15 2   
    31    13    18 1   
    32    14    16 1   
    33    14    18 1   
    34    14    19 2   
    35    15    19 1   
    36    16    21 1   
    37    17    18 1   
    38    17    36 1   
@<TRIPOS>SUBSTRUCTURE
     1 8WX         1 TEMP              0 ****  ****    0 ROOT
