@<TRIPOS>MOLECULE
8WY
   23    22     1     0     0
SMALL
bcc


@<TRIPOS>ATOM
      1 O          -25.9880   -25.3010    -6.9190 o          1 8WY      -0.836300
      2 C          -25.1130   -26.1880    -6.8730 c          1 8WY       0.902600
      3 OXT        -24.1190   -26.2210    -6.1170 o          1 8WY      -0.836300
      4 CA         -25.2420   -27.3660    -7.8750 c3         1 8WY       0.012500
      5 N          -26.5460   -27.5070    -8.5040 n8         1 8WY      -0.891800
      6 CB         -24.1570   -27.2320    -8.9500 c3         1 8WY      -0.058400
      7 CAG        -24.0430   -28.4710    -9.8340 c3         1 8WY      -0.140400
      8 CAH        -23.0860   -28.3570   -11.0280 c3         1 8WY       0.348600
      9 OAK        -21.7830   -28.0210   -10.6120 oh         1 8WY      -0.629800
     10 CAI        -22.9710   -29.6900   -11.7500 c3         1 8WY      -0.068100
     11 O1         -23.5640   -27.4340   -11.9790 oh         1 8WY      -0.629800
     12 H2         -25.0400   -28.2910    -7.3230 h1         1 8WY       0.038700
     13 H3         -27.2220   -27.7690    -7.7950 hn         1 8WY       0.328300
     14 H4         -26.8420   -26.5840    -8.8030 hn         1 8WY       0.328300
     15 H6         -23.2080   -27.0360    -8.4440 hc         1 8WY       0.035700
     16 H7         -24.3810   -26.3370    -9.5450 hc         1 8WY       0.035700
     17 H8         -25.0320   -28.7350   -10.2130 hc         1 8WY       0.058700
     18 H9         -23.7160   -29.3110    -9.2120 hc         1 8WY       0.058700
     19 H10        -21.8180   -27.2560   -10.0260 ho         1 8WY       0.412000
     20 H11        -23.9490   -30.0260   -12.0920 hc         1 8WY       0.040367
     21 H12        -22.3140   -29.6120   -12.6190 hc         1 8WY       0.040367
     22 H13        -22.5660   -30.4520   -11.0850 hc         1 8WY       0.040367
     23 H14        -23.8330   -26.6210   -11.5380 ho         1 8WY       0.412000
@<TRIPOS>BOND
     1     1     2 1   
     2     2     3 1   
     3     2     4 1   
     4     4     5 1   
     5     4     6 1   
     6     4    12 1   
     7     5    13 1   
     8     5    14 1   
     9     6     7 1   
    10     6    15 1   
    11     6    16 1   
    12     7     8 1   
    13     7    17 1   
    14     7    18 1   
    15     8     9 1   
    16     8    10 1   
    17     8    11 1   
    18     9    19 1   
    19    10    20 1   
    20    10    21 1   
    21    10    22 1   
    22    11    23 1   
@<TRIPOS>SUBSTRUCTURE
     1 8WY         1 TEMP              0 ****  ****    0 ROOT
