@<TRIPOS>MOLECULE
8WY
   23    22     1     0     0
SMALL
No Charge or Current Charge


@<TRIPOS>ATOM
      1 O          -25.5600   -25.0330    -7.1570 o          1 8WY      -0.731000
      2 C          -25.0600   -26.1070    -6.8470 c          1 8WY       0.692000
      3 OXT        -24.5520   -26.3150    -5.7530 o          1 8WY      -0.731000
      4 CA         -25.2060   -27.3260    -7.8510 c3         1 8WY       0.012500
      5 N          -26.6020   -27.6040    -8.3520 n8         1 8WY      -1.002200
      6 CB         -24.2150   -27.1720    -9.0370 c3         1 8WY      -0.058400
      7 CAG        -24.0340   -28.4660    -9.8890 c3         1 8WY      -0.140400
      8 CAH        -23.0350   -28.3810   -11.0710 c3         1 8WY       0.395000
      9 OAK        -21.7570   -28.0190   -10.6030 oh         1 8WY      -0.692000
     10 CAI        -22.9270   -29.7090   -11.8500 c3         1 8WY      -0.068100
     11 O1         -23.4230   -27.3590   -11.9590 oh         1 8WY      -0.692000
     12 H2         -24.8950   -28.2170    -7.2880 h1         1 8WY       0.038700
     13 H3         -27.2200   -27.7680    -7.5470 hn         1 8WY       0.383500
     14 H4         -26.9770   -26.7380    -8.7570 hn         1 8WY       0.383500
     15 H6         -23.2420   -26.8790    -8.6250 hc         1 8WY       0.035700
     16 H7         -24.5470   -26.3420    -9.6730 hc         1 8WY       0.035700
     17 H8         -25.0100   -28.7680   -10.2880 hc         1 8WY       0.058700
     18 H9         -23.7180   -29.2790    -9.2240 hc         1 8WY       0.058700
     19 H10        -21.9080   -27.4780    -9.8030 ho         1 8WY       0.451000
     20 H11        -23.9010   -29.9950   -12.2650 hc         1 8WY       0.040367
     21 H12        -22.2160   -29.6200   -12.6800 hc         1 8WY       0.040367
     22 H13        -22.5860   -30.5170   -11.1930 hc         1 8WY       0.040367
     23 H14        -23.9420   -26.7260   -11.4240 ho         1 8WY       0.451000
@<TRIPOS>BOND
     1     1     2 1   
     2     2     3 1   
     3     2     4 1   
     4     4     5 1   
     5     4     6 1   
     6     4    12 1   
     7     5    13 1   
     8     5    14 1   
     9     6     7 1   
    10     6    15 1   
    11     6    16 1   
    12     7     8 1   
    13     7    17 1   
    14     7    18 1   
    15     8     9 1   
    16     8    10 1   
    17     8    11 1   
    18     9    19 1   
    19    10    20 1   
    20    10    21 1   
    21    10    22 1   
    22    11    23 1   
@<TRIPOS>SUBSTRUCTURE
     1 8WY         1 TEMP              0 ****  ****    0 ROOT
