@<TRIPOS>MOLECULE
8WZ
   26    28     1     0     0
SMALL
abcg2


@<TRIPOS>ATOM
      1 C10          0.6310    -0.2580     0.0140 ca         1 8WZ       0.028100
      2 C15          1.9360     0.2270    -0.0520 ca         1 8WZ       0.102400
      3 C01          1.2900     3.9350     0.0640 c3         1 8WZ      -0.045800
      4 C02          1.0740     2.4480     0.0510 ca         1 8WZ      -0.078300
      5 C03         -0.2150     1.9270     0.1170 ca         1 8WZ      -0.097000
      6 C04         -0.4870     0.5490     0.1000 ca         1 8WZ      -0.087500
      7 C05         -1.8490     0.0580     0.1680 cc         1 8WZ       0.189500
      8 C06         -3.0520     0.6950     0.2340 cd         1 8WZ      -0.169000
      9 C07         -4.0440    -0.3260     0.2800 cd         1 8WZ      -0.188000
     10 C08         -3.3730    -1.5010     0.2380 cc         1 8WZ       0.126900
     11 O09         -2.0460    -1.2780     0.1710 os         1 8WZ      -0.224000
     12 O11          0.7110    -1.6210    -0.0250 os         1 8WZ      -0.292700
     13 C12          2.0340    -1.8810    -0.1120 cc         1 8WZ       0.760500
     14 N13          2.3880    -3.1700    -0.1170 nv         1 8WZ      -1.016200
     15 N14          2.8080    -0.8420    -0.1340 nd         1 8WZ      -0.656100
     16 C16          2.1740     1.5900    -0.0350 ca         1 8WZ      -0.067000
     17 H1           1.7000     4.2800    -0.8860 hc         1 8WZ       0.043700
     18 H2           0.3600     4.4750     0.2390 hc         1 8WZ       0.043700
     19 H3           1.9970     4.2260     0.8420 hc         1 8WZ       0.043700
     20 H4          -1.0460     2.6190     0.1890 ha         1 8WZ       0.118000
     21 H5          -3.2160     1.7600     0.2480 ha         1 8WZ       0.141000
     22 H6          -5.1120    -0.1980     0.3350 ha         1 8WZ       0.142000
     23 H7          -3.6890    -2.5320     0.2490 h4         1 8WZ       0.052100
     24 H8           1.7060    -3.8660    -0.3680 hn         1 8WZ       0.500000
     25 H9           3.3420    -3.3830    -0.3570 hn         1 8WZ       0.500000
     26 H10          3.1830     1.9790    -0.0860 ha         1 8WZ       0.133000
@<TRIPOS>BOND
     1     1     2 ar  
     2     1     6 ar  
     3     1    12 1   
     4     2    15 1   
     5     2    16 ar  
     6     3     4 1   
     7     3    17 1   
     8     3    18 1   
     9     3    19 1   
    10     4     5 ar  
    11     4    16 ar  
    12     5     6 ar  
    13     5    20 1   
    14     6     7 1   
    15     7     8 2   
    16     7    11 1   
    17     8     9 1   
    18     8    21 1   
    19     9    10 2   
    20     9    22 1   
    21    10    11 1   
    22    10    23 1   
    23    12    13 1   
    24    13    14 1   
    25    13    15 2   
    26    14    24 1   
    27    14    25 1   
    28    16    26 1   
@<TRIPOS>SUBSTRUCTURE
     1 8WZ         1 TEMP              0 ****  ****    0 ROOT
