@<TRIPOS>MOLECULE
8WZ
   26    28     1     0     0
SMALL
No Charge or Current Charge


@<TRIPOS>ATOM
      1 C10          0.6530    -0.3120     0.0580 ca         1 8WZ       0.028100
      2 C15          1.9290     0.1840     0.0200 ca         1 8WZ       0.102400
      3 C01          1.2870     3.9430     0.1450 c3         1 8WZ      -0.045800
      4 C02          1.0670     2.4380     0.1090 ca         1 8WZ      -0.078300
      5 C03         -0.2490     1.9140     0.1490 ca         1 8WZ      -0.097000
      6 C04         -0.4840     0.5160     0.1220 ca         1 8WZ      -0.087500
      7 C05         -1.8440    -0.0360     0.1650 cc         1 8WZ       0.189500
      8 C06         -2.9920     0.6460    -0.1310 cd         1 8WZ      -0.169000
      9 C07         -4.0460    -0.2770     0.0430 cd         1 8WZ      -0.188000
     10 C08         -3.4900    -1.4690     0.4330 cc         1 8WZ       0.126900
     11 O09         -2.1200    -1.3370     0.5120 os         1 8WZ      -0.224000
     12 O11          0.6810    -1.6700     0.0140 os         1 8WZ      -0.292700
     13 C12          2.0390    -1.8850    -0.0400 cc         1 8WZ       0.760500
     14 N13          2.4840    -3.1360    -0.1150 nv         1 8WZ      -1.016200
     15 N14          2.8520    -0.8400    -0.0480 nd         1 8WZ      -0.656100
     16 C16          2.1730     1.5620     0.0440 ca         1 8WZ      -0.067000
     17 H1           0.5050     4.4720    -0.4120 hc         1 8WZ       0.043700
     18 H2           1.2740     4.3140     1.1760 hc         1 8WZ       0.043700
     19 H3           2.2510     4.2200    -0.2990 hc         1 8WZ       0.043700
     20 H4          -1.0860     2.6050     0.2120 ha         1 8WZ       0.118000
     21 H5          -3.0790     1.6810    -0.4450 ha         1 8WZ       0.141000
     22 H6          -5.1040    -0.0880    -0.1060 ha         1 8WZ       0.142000
     23 H7          -3.9230    -2.4310     0.6710 h4         1 8WZ       0.052100
     24 H8           1.8100    -3.8120    -0.4520 hn         1 8WZ       0.500000
     25 H9           3.4260    -3.2320    -0.4720 hn         1 8WZ       0.500000
     26 H10          3.1910     1.9410     0.0140 ha         1 8WZ       0.133000
@<TRIPOS>BOND
     1     1     2 ar  
     2     1     6 ar  
     3     1    12 1   
     4     2    15 1   
     5     2    16 ar  
     6     3     4 1   
     7     3    17 1   
     8     3    18 1   
     9     3    19 1   
    10     4     5 ar  
    11     4    16 ar  
    12     5     6 ar  
    13     5    20 1   
    14     6     7 1   
    15     7     8 2   
    16     7    11 1   
    17     8     9 1   
    18     8    21 1   
    19     9    10 2   
    20     9    22 1   
    21    10    11 1   
    22    10    23 1   
    23    12    13 1   
    24    13    14 1   
    25    13    15 2   
    26    14    24 1   
    27    14    25 1   
    28    16    26 1   
@<TRIPOS>SUBSTRUCTURE
     1 8WZ         1 TEMP              0 ****  ****    0 ROOT
