@<TRIPOS>MOLECULE
8X0
   48    50     1     0     0
SMALL
No Charge or Current Charge


@<TRIPOS>ATOM
      1 C1           7.9960     1.0620     1.4750 c3         1 8X0       0.148900
      2 O2           7.5560    -0.0380     0.6580 os         1 8X0      -0.339100
      3 C3           6.2390    -0.1920     0.2790 ca         1 8X0       0.157100
      4 C4           5.9100    -1.2980    -0.5180 ca         1 8X0      -0.181000
      5 C5           4.5850    -1.5080    -0.9360 ca         1 8X0      -0.048000
      6 C6           3.5660    -0.6110    -0.5590 ca         1 8X0      -0.116800
      7 C7           2.1670    -0.8600    -1.0180 ce         1 8X0      -0.072200
      8 C8           1.0350    -0.1430    -0.7520 cf         1 8X0      -0.317200
      9 C9          -0.3210    -0.4920    -1.2630 c          1 8X0       0.593900
     10 O10         -0.4900    -1.4780    -1.9690 o          1 8X0      -0.518100
     11 C11         -1.4560     0.4250    -0.9200 ca         1 8X0      -0.237600
     12 C12         -1.3030     1.8140    -1.0830 ca         1 8X0      -0.004000
     13 C13         -2.3610     2.6840    -0.7750 ca         1 8X0      -0.252000
     14 C14         -3.5870     2.1770    -0.3010 ca         1 8X0       0.212100
     15 O15         -4.6520     3.0040     0.0030 os         1 8X0      -0.338100
     16 C16         -4.5850     4.4330    -0.1420 c3         1 8X0       0.148900
     17 C17         -3.7410     0.7870    -0.1260 ca         1 8X0      -0.199800
     18 C18         -5.0140     0.1900     0.3530 ce         1 8X0      -0.110200
     19 C19         -5.0530    -1.1060     0.7090 c2         1 8X0      -0.273200
     20 C20         -3.7960    -1.9610     0.6830 c6         1 8X0       0.229200
     21 C21         -4.1230    -3.4110     0.2450 c3         1 8X0      -0.097100
     22 C22         -3.1300    -1.9650     2.0840 c3         1 8X0      -0.097100
     23 O23         -2.8230    -1.4480    -0.2540 os         1 8X0      -0.324100
     24 C24         -2.6720    -0.0840    -0.4270 ca         1 8X0       0.243100
     25 C25          3.8980     0.5020     0.2430 ca         1 8X0      -0.048000
     26 C26          5.2250     0.7110     0.6610 ca         1 8X0      -0.181000
     27 H1           7.7960     2.0200     0.9800 h1         1 8X0       0.042700
     28 H2           7.4860     1.0540     2.4480 h1         1 8X0       0.042700
     29 H3           9.0760     0.9920     1.6570 h1         1 8X0       0.042700
     30 H4           6.6880    -1.9970    -0.8150 ha         1 8X0       0.124000
     31 H5           4.3530    -2.3730    -1.5540 ha         1 8X0       0.115500
     32 H6           2.0650    -1.7460    -1.6510 ha         1 8X0       0.191000
     33 H7           1.0880     0.7400    -0.1210 ha         1 8X0       0.179000
     34 H8          -0.3690     2.2240    -1.4640 ha         1 8X0       0.116000
     35 H9          -2.2090     3.7500    -0.9200 ha         1 8X0       0.121000
     36 H10         -3.7940     4.8530     0.4930 h1         1 8X0       0.044033
     37 H11         -4.3850     4.7100    -1.1850 h1         1 8X0       0.044033
     38 H12         -5.5370     4.8900     0.1540 h1         1 8X0       0.044033
     39 H13         -5.8990     0.8290     0.3950 ha         1 8X0       0.195000
     40 H14         -5.9730    -1.5750     1.0610 ha         1 8X0       0.188000
     41 H15         -4.5900    -3.4250    -0.7470 hc         1 8X0       0.048367
     42 H16         -3.2170    -4.0260     0.1970 hc         1 8X0       0.048367
     43 H17         -4.8160    -3.8920     0.9450 hc         1 8X0       0.048367
     44 H18         -3.7980    -2.3980     2.8380 hc         1 8X0       0.048367
     45 H19         -2.2030    -2.5510     2.0830 hc         1 8X0       0.048367
     46 H20         -2.8820    -0.9470     2.4080 hc         1 8X0       0.048367
     47 H21          3.1360     1.2130     0.5500 ha         1 8X0       0.115500
     48 H22          5.4440     1.5780     1.2770 ha         1 8X0       0.124000
@<TRIPOS>BOND
     1     1     2 1   
     2     1    27 1   
     3     1    28 1   
     4     1    29 1   
     5     2     3 1   
     6     3     4 ar  
     7     3    26 ar  
     8     4     5 ar  
     9     4    30 1   
    10     5     6 ar  
    11     5    31 1   
    12     6     7 1   
    13     6    25 ar  
    14     7     8 2   
    15     7    32 1   
    16     8     9 1   
    17     8    33 1   
    18     9    10 2   
    19     9    11 1   
    20    11    12 ar  
    21    11    24 ar  
    22    12    13 ar  
    23    12    34 1   
    24    13    14 ar  
    25    13    35 1   
    26    14    15 1   
    27    14    17 ar  
    28    15    16 1   
    29    16    36 1   
    30    16    37 1   
    31    16    38 1   
    32    17    18 1   
    33    17    24 ar  
    34    18    19 2   
    35    18    39 1   
    36    19    20 1   
    37    19    40 1   
    38    20    21 1   
    39    20    22 1   
    40    20    23 1   
    41    21    41 1   
    42    21    42 1   
    43    21    43 1   
    44    22    44 1   
    45    22    45 1   
    46    22    46 1   
    47    23    24 1   
    48    25    26 ar  
    49    25    47 1   
    50    26    48 1   
@<TRIPOS>SUBSTRUCTURE
     1 8X0         1 TEMP              0 ****  ****    0 ROOT
