@<TRIPOS>MOLECULE
8X0
   48    50     1     0     0
SMALL
bcc


@<TRIPOS>ATOM
      1 C1           7.9970     1.2050     1.1470 c3         1 8X0       0.125700
      2 O2           7.5750     0.0810     0.3950 os         1 8X0      -0.315900
      3 C3           6.2670    -0.0820     0.1550 ca         1 8X0       0.157100
      4 C4           5.9090    -1.1970    -0.6070 ca         1 8X0      -0.199000
      5 C5           4.5830    -1.4330    -0.9030 ca         1 8X0      -0.066000
      6 C6           3.5670    -0.5780    -0.4570 ca         1 8X0      -0.116800
      7 C7           2.1910    -0.8800    -0.8110 ce         1 8X0      -0.022200
      8 C8           1.0940    -0.1790    -0.4850 cf         1 8X0      -0.267200
      9 C9          -0.2490    -0.6200    -0.9060 c          1 8X0       0.593900
     10 O10         -0.4280    -1.6920    -1.4600 o          1 8X0      -0.518100
     11 C11         -1.3710     0.3080    -0.6270 ca         1 8X0      -0.237600
     12 C12         -1.1750     1.6870    -0.6990 ca         1 8X0      -0.022000
     13 C13         -2.1990     2.5960    -0.5100 ca         1 8X0      -0.270000
     14 C14         -3.4790     2.1260    -0.2270 ca         1 8X0       0.212100
     15 O15         -4.5400     2.9160    -0.0290 os         1 8X0      -0.314900
     16 C16         -4.3870     4.3190    -0.1570 c3         1 8X0       0.125700
     17 C17         -3.7200     0.7480    -0.1330 ca         1 8X0      -0.199800
     18 C18         -5.0440     0.1900     0.1050 ce         1 8X0      -0.060200
     19 C19         -5.1670    -1.0960     0.4250 c2         1 8X0      -0.223200
     20 C20         -3.9450    -1.9520     0.5970 c6         1 8X0       0.206000
     21 C21         -4.2050    -3.3790     0.1450 c3         1 8X0      -0.097100
     22 C22         -3.4710    -1.9160     2.0480 c3         1 8X0      -0.097100
     23 O23         -2.8910    -1.4660    -0.2590 os         1 8X0      -0.300900
     24 C24         -2.6660    -0.1490    -0.3310 ca         1 8X0       0.243100
     25 C25          3.9440     0.5300     0.3070 ca         1 8X0      -0.066000
     26 C26          5.2690     0.7830     0.6130 ca         1 8X0      -0.199000
     27 H1           7.7160     2.1440     0.6650 h1         1 8X0       0.042700
     28 H2           7.5930     1.1910     2.1620 h1         1 8X0       0.042700
     29 H3           9.0810     1.1480     1.2000 h1         1 8X0       0.042700
     30 H4           6.6790    -1.8710    -0.9620 ha         1 8X0       0.142000
     31 H5           4.3240    -2.3010    -1.4960 ha         1 8X0       0.133500
     32 H6           2.0570    -1.7750    -1.4130 ha         1 8X0       0.141000
     33 H7           1.1660     0.7200     0.1150 ha         1 8X0       0.129000
     34 H8          -0.1910     2.0730    -0.9330 ha         1 8X0       0.134000
     35 H9          -1.9870     3.6530    -0.5910 ha         1 8X0       0.139000
     36 H10         -3.6880     4.7190     0.5800 h1         1 8X0       0.044033
     37 H11         -4.0510     4.6000    -1.1570 h1         1 8X0       0.044033
     38 H12         -5.3690     4.7500     0.0200 h1         1 8X0       0.044033
     39 H13         -5.9150     0.8220     0.0030 ha         1 8X0       0.145000
     40 H14         -6.1360    -1.5460     0.6030 ha         1 8X0       0.138000
     41 H15         -4.5390    -3.4110    -0.8930 hc         1 8X0       0.048367
     42 H16         -3.3080    -3.9900     0.2420 hc         1 8X0       0.048367
     43 H17         -4.9840    -3.8240     0.7630 hc         1 8X0       0.048367
     44 H18         -4.2630    -2.2810     2.7030 hc         1 8X0       0.048367
     45 H19         -2.5950    -2.5510     2.1900 hc         1 8X0       0.048367
     46 H20         -3.2230    -0.9000     2.3620 hc         1 8X0       0.048367
     47 H21          3.1960     1.2200     0.6770 ha         1 8X0       0.133500
     48 H22          5.5090     1.6560     1.2040 ha         1 8X0       0.142000
@<TRIPOS>BOND
     1     1     2 1   
     2     1    27 1   
     3     1    28 1   
     4     1    29 1   
     5     2     3 1   
     6     3     4 ar  
     7     3    26 ar  
     8     4     5 ar  
     9     4    30 1   
    10     5     6 ar  
    11     5    31 1   
    12     6     7 1   
    13     6    25 ar  
    14     7     8 2   
    15     7    32 1   
    16     8     9 1   
    17     8    33 1   
    18     9    10 2   
    19     9    11 1   
    20    11    12 ar  
    21    11    24 ar  
    22    12    13 ar  
    23    12    34 1   
    24    13    14 ar  
    25    13    35 1   
    26    14    15 1   
    27    14    17 ar  
    28    15    16 1   
    29    16    36 1   
    30    16    37 1   
    31    16    38 1   
    32    17    18 1   
    33    17    24 ar  
    34    18    19 2   
    35    18    39 1   
    36    19    20 1   
    37    19    40 1   
    38    20    21 1   
    39    20    22 1   
    40    20    23 1   
    41    21    41 1   
    42    21    42 1   
    43    21    43 1   
    44    22    44 1   
    45    22    45 1   
    46    22    46 1   
    47    23    24 1   
    48    25    26 ar  
    49    25    47 1   
    50    26    48 1   
@<TRIPOS>SUBSTRUCTURE
     1 8X0         1 TEMP              0 ****  ****    0 ROOT
