@<TRIPOS>MOLECULE
8X1
   48    51     1     0     0
SMALL
No Charge or Current Charge


@<TRIPOS>ATOM
      1 O2S          4.0660     1.7300     1.8830 o          1 8X1      -0.536000
      2 S            3.7890     1.0300     0.6260 s6         1 8X1       1.436500
      3 O1S          4.8670     0.7030    -0.3130 o          1 8X1      -0.536000
      4 N3S          2.9680    -0.3630     1.0110 ns         1 8X1      -0.630300
      5 C            2.4420    -1.2900     0.1640 c          1 8X1       0.595100
      6 CA           1.7250    -2.4440     1.0250 cy         1 8X1       0.066500
      7 CB           2.8710    -3.5040     0.7890 cy         1 8X1      -0.098400
      8 CG           1.9640    -4.0950    -0.3440 cy         1 8X1       0.146800
      9 N            0.8060    -3.4480     0.3600 n6         1 8X1      -0.852400
     10 O            2.5390    -1.1270    -1.0440 o          1 8X1      -0.511100
     11 O5           2.6020     1.8250    -0.1850 os         1 8X1      -0.540700
     12 C5           1.4460     2.2300     0.5700 c3         1 8X1       0.185600
     13 C4           0.5240     3.0620    -0.3670 c5         1 8X1       0.169300
     14 C3          -0.6510     3.7770     0.3690 c5         1 8X1       0.107300
     15 O3          -1.2750     4.8020    -0.4140 oh         1 8X1      -0.697000
     16 C2          -1.6270     2.5830     0.5560 c5         1 8X1       0.083300
     17 O2          -2.9700     3.0570     0.7840 oh         1 8X1      -0.689000
     18 C1          -1.4370     1.7950    -0.7960 c5         1 8X1       0.313300
     19 O4          -0.1480     2.2010    -1.3240 os         1 8X1      -0.421000
     20 N9          -1.5040     0.3340    -0.7230 na         1 8X1      -0.284300
     21 C9          -2.4100    -0.4530    -0.0540 ca         1 8X1       0.151500
     22 C7          -2.1790    -1.7520    -0.4320 ca         1 8X1      -0.101600
     23 N7          -1.1310    -1.8640    -1.3380 nc         1 8X1      -0.556100
     24 C8          -0.7560    -0.5790    -1.4890 cd         1 8X1       0.410700
     25 N3          -3.3880    -0.1280     0.8160 nb         1 8X1      -0.216000
     26 C10         -4.1220    -1.1590     1.2980 ca         1 8X1       0.187900
     27 N1          -3.9780    -2.4680     0.9880 nb         1 8X1      -0.301000
     28 C6          -3.0030    -2.7600     0.1160 ca         1 8X1       0.453900
     29 N6          -2.8710    -4.0760    -0.2040 nv         1 8X1      -1.064900
     30 H1           2.8910    -0.4760     2.0060 hn         1 8X1       0.345500
     31 H2           1.5260    -2.1860     2.0720 h1         1 8X1       0.080700
     32 H3           3.8680    -3.1660     0.4810 hc         1 8X1       0.065200
     33 H4           3.0050    -4.1890     1.6340 hc         1 8X1       0.065200
     34 H5           2.1920    -3.6910    -1.3390 h1         1 8X1       0.056700
     35 H6           1.9530    -5.1910    -0.3930 h1         1 8X1       0.056700
     36 H7           0.0670    -3.0540    -0.2500 hn         1 8X1       0.458000
     37 H9           0.8980     1.3620     0.9600 h1         1 8X1       0.050700
     38 H10          1.7370     2.8650     1.4180 h1         1 8X1       0.050700
     39 H11          1.1500     3.7870    -0.9040 h1         1 8X1       0.114700
     40 H12         -0.3300     4.1850     1.3380 h1         1 8X1       0.053700
     41 H13         -2.2360     4.6980    -0.2000 ho         1 8X1       0.526000
     42 H14         -1.3000     1.9640     1.4030 h1         1 8X1       0.045700
     43 H15         -3.5110     2.2820     1.0710 ho         1 8X1       0.516000
     44 H16         -2.2170     2.0960    -1.5070 h2         1 8X1       0.127700
     45 H17          0.0330    -0.2380    -2.1490 h5         1 8X1       0.051800
     46 H18         -4.9120    -0.9070     2.0030 h5         1 8X1       0.048100
     47 H19         -3.2840    -4.7600     0.4230 hn         1 8X1       0.507500
     48 H20         -2.0210    -4.3560    -0.6850 hn         1 8X1       0.507500
@<TRIPOS>BOND
     1     1     2 2   
     2     2     3 2   
     3     2     4 1   
     4     2    11 1   
     5     4     5 1   
     6     4    30 1   
     7     5     6 1   
     8     5    10 2   
     9     6     7 1   
    10     6     9 1   
    11     6    31 1   
    12     7     8 1   
    13     7    32 1   
    14     7    33 1   
    15     8     9 1   
    16     8    34 1   
    17     8    35 1   
    18     9    36 1   
    19    11    12 1   
    20    12    13 1   
    21    12    37 1   
    22    12    38 1   
    23    13    14 1   
    24    13    19 1   
    25    13    39 1   
    26    14    15 1   
    27    14    16 1   
    28    14    40 1   
    29    15    41 1   
    30    16    17 1   
    31    16    18 1   
    32    16    42 1   
    33    17    43 1   
    34    18    19 1   
    35    18    20 1   
    36    18    44 1   
    37    20    21 1   
    38    20    24 1   
    39    21    22 ar  
    40    21    25 ar  
    41    22    23 1   
    42    22    28 ar  
    43    23    24 2   
    44    24    45 1   
    45    25    26 ar  
    46    26    27 ar  
    47    26    46 1   
    48    27    28 ar  
    49    28    29 1   
    50    29    47 1   
    51    29    48 1   
@<TRIPOS>SUBSTRUCTURE
     1 8X1         1 TEMP              0 ****  ****    0 ROOT
