@<TRIPOS>MOLECULE
8X1
   48    51     1     0     0
SMALL
abcg2


@<TRIPOS>ATOM
      1 O2S          4.5290     1.8740     0.0330 o          1 8X1      -0.536000
      2 S            3.6230     1.0340    -0.7100 s6         1 8X1       1.436500
      3 O1S          3.9600     0.5360    -2.0140 o          1 8X1      -0.536000
      4 N3S          3.2660    -0.2200     0.3220 ns         1 8X1      -0.630300
      5 C            2.4210    -1.2710     0.0130 c          1 8X1       0.595100
      6 CA           2.4820    -2.3890     1.0310 cy         1 8X1       0.066500
      7 CB           3.5230    -3.4540     0.5950 cy         1 8X1      -0.098400
      8 CG           2.3110    -4.2740     0.1230 cy         1 8X1       0.146800
      9 N            1.4430    -3.3960     0.9190 n6         1 8X1      -0.852400
     10 O            1.7380    -1.2750    -0.9800 o          1 8X1      -0.511100
     11 O5           2.2300     1.7560    -0.9110 os         1 8X1      -0.540700
     12 C5           1.6180     2.4310     0.2030 c3         1 8X1       0.185600
     13 C4           0.2760     2.9350    -0.2880 c5         1 8X1       0.169300
     14 C3          -0.5260     3.5820     0.8370 c5         1 8X1       0.107300
     15 O3          -1.3610     4.5590     0.2780 oh         1 8X1      -0.697000
     16 C2          -1.3410     2.3880     1.3440 c5         1 8X1       0.083300
     17 O2          -2.5310     2.7160     1.9910 oh         1 8X1      -0.689000
     18 C1          -1.6450     1.6620     0.0350 c5         1 8X1       0.313300
     19 O4          -0.5160     1.8580    -0.7770 os         1 8X1      -0.421000
     20 N9          -1.8850     0.2530     0.1820 na         1 8X1      -0.284300
     21 C9          -2.9150    -0.4550    -0.3730 ca         1 8X1       0.151500
     22 C7          -2.6610    -1.7780    -0.0510 ca         1 8X1      -0.101600
     23 N7          -1.5000    -1.8880     0.6730 nc         1 8X1      -0.556100
     24 C8          -1.0730    -0.6680     0.7850 cd         1 8X1       0.410700
     25 N3          -3.9500     0.0050    -1.0690 nb         1 8X1      -0.216000
     26 C10         -4.7600    -0.9710    -1.4420 ca         1 8X1       0.187900
     27 N1          -4.6490    -2.2750    -1.2040 nb         1 8X1      -0.301000
     28 C6          -3.6010    -2.7230    -0.5030 ca         1 8X1       0.453900
     29 N6          -3.4810    -4.0280    -0.2640 nv         1 8X1      -1.064900
     30 H1           3.8010    -0.2360     1.1840 hn         1 8X1       0.345500
     31 H2           2.6140    -1.9680     2.0340 h1         1 8X1       0.080700
     32 H3           4.2590    -3.1630    -0.1520 hc         1 8X1       0.065200
     33 H4           4.0360    -3.8880     1.4510 hc         1 8X1       0.065200
     34 H5           2.1560    -4.2100    -0.9570 h1         1 8X1       0.056700
     35 H6           2.2870    -5.3250     0.4150 h1         1 8X1       0.056700
     36 H7           0.5630    -3.1040     0.5110 hn         1 8X1       0.458000
     37 H9           1.5160     1.7410     1.0460 h1         1 8X1       0.050700
     38 H10          2.2320     3.2760     0.5170 h1         1 8X1       0.050700
     39 H11          0.4440     3.6510    -1.0980 h1         1 8X1       0.114700
     40 H12          0.1210     3.9980     1.6210 h1         1 8X1       0.053700
     41 H13         -2.0840     4.7210     0.8950 ho         1 8X1       0.526000
     42 H14         -0.6960     1.7660     1.9780 h1         1 8X1       0.045700
     43 H15         -2.3450     2.8950     2.9180 ho         1 8X1       0.516000
     44 H16         -2.5460     2.0770    -0.4270 h2         1 8X1       0.127700
     45 H17         -0.1730    -0.3770     1.3050 h5         1 8X1       0.051800
     46 H18         -5.6310    -0.6760    -2.0180 h5         1 8X1       0.048100
     47 H19         -4.1890    -4.6700    -0.5780 hn         1 8X1       0.507500
     48 H20         -2.7210    -4.3880     0.2860 hn         1 8X1       0.507500
@<TRIPOS>BOND
     1     1     2 2   
     2     2     3 2   
     3     2     4 1   
     4     2    11 1   
     5     4     5 1   
     6     4    30 1   
     7     5     6 1   
     8     5    10 2   
     9     6     7 1   
    10     6     9 1   
    11     6    31 1   
    12     7     8 1   
    13     7    32 1   
    14     7    33 1   
    15     8     9 1   
    16     8    34 1   
    17     8    35 1   
    18     9    36 1   
    19    11    12 1   
    20    12    13 1   
    21    12    37 1   
    22    12    38 1   
    23    13    14 1   
    24    13    19 1   
    25    13    39 1   
    26    14    15 1   
    27    14    16 1   
    28    14    40 1   
    29    15    41 1   
    30    16    17 1   
    31    16    18 1   
    32    16    42 1   
    33    17    43 1   
    34    18    19 1   
    35    18    20 1   
    36    18    44 1   
    37    20    21 1   
    38    20    24 1   
    39    21    22 ar  
    40    21    25 ar  
    41    22    23 1   
    42    22    28 ar  
    43    23    24 2   
    44    24    45 1   
    45    25    26 ar  
    46    26    27 ar  
    47    26    46 1   
    48    27    28 ar  
    49    28    29 1   
    50    29    47 1   
    51    29    48 1   
@<TRIPOS>SUBSTRUCTURE
     1 8X1         1 TEMP              0 ****  ****    0 ROOT
