@<TRIPOS>MOLECULE
8X2
   55    59     1     0     0
SMALL
No Charge or Current Charge


@<TRIPOS>ATOM
      1 C1           8.2420    -0.6490    -0.9570 c6         1 8X2       0.157300
      2 C2           6.7650    -1.1500    -0.8320 c6         1 8X2       0.196800
      3 C3           6.6350    -0.0760     1.4170 c6         1 8X2       0.196800
      4 N6          -8.3350    -1.5040     0.1610 ns         1 8X2      -0.511900
      5 C7           2.4020    -1.3320    -0.5650 ca         1 8X2      -0.115000
      6 C8           1.6950    -0.2050    -0.1120 ca         1 8X2       0.279000
      7 C9           2.4180     0.8740     0.4330 ca         1 8X2      -0.115000
      8 C10          3.8240     0.8320     0.4990 ca         1 8X2      -0.136500
      9 C11         -0.6850     0.7690    -0.2610 ca         1 8X2       0.398900
     10 C12         -1.2960     2.9530    -0.5550 ca         1 8X2       0.156900
     11 C13         -2.6450     2.5790    -0.4650 ca         1 8X2      -0.298000
     12 C14         -2.9390     1.2160    -0.2730 ca         1 8X2       0.264500
     13 C15         -4.3270     0.7570    -0.1700 cc         1 8X2      -0.277500
     14 C16         -4.6950    -0.5580    -0.0250 cd         1 8X2      -0.029000
     15 C19         -8.0480     1.0210     0.1440 c6         1 8X2      -0.026100
     16 C20         -8.9290    -0.2030    -0.2180 c6         1 8X2       0.117000
     17 C21         -6.9860    -1.7850     0.2360 c          1 8X2       0.605600
     18 O           -6.5810    -2.9230     0.4150 o          1 8X2      -0.558000
     19 C17         -6.1050    -0.6060     0.0610 cd         1 8X2      -0.243600
     20 C18         -6.5950     0.6690    -0.0130 cc         1 8X2      -0.118300
     21 N5          -5.4990     1.5210    -0.1500 na         1 8X2      -0.077000
     22 N3          -0.3090     2.0450    -0.4580 nb         1 8X2      -0.236000
     23 N4          -1.9440     0.3100    -0.1740 nb         1 8X2      -0.252000
     24 N2           0.2960    -0.2140    -0.1850 nu         1 8X2      -0.923900
     25 C6           3.8080    -1.3740    -0.5010 ca         1 8X2      -0.136500
     26 C5           4.5350    -0.2900     0.0320 ca         1 8X2       0.272000
     27 N1           5.9490    -0.3120     0.1050 nh         1 8X2      -0.785400
     28 C4           8.1150     0.4030     1.2460 c6         1 8X2       0.157300
     29 N            8.9190    -0.5000     0.3670 n3         1 8X2      -0.712600
     30 C           10.3270    -0.0680     0.2420 c3         1 8X2       0.151100
     31 H1           8.7970    -1.3570    -1.5910 h1         1 8X2       0.039200
     32 H2           8.2360     0.3150    -1.4860 h1         1 8X2       0.039200
     33 H3           6.3150    -1.1450    -1.8360 h1         1 8X2       0.043700
     34 H4           6.7770    -2.1930    -0.4820 h1         1 8X2       0.043700
     35 H5           6.0980     0.6770     2.0110 h1         1 8X2       0.043700
     36 H6           6.6340    -1.0060     2.0030 h1         1 8X2       0.043700
     37 H8           1.8620    -2.1810    -0.9780 ha         1 8X2       0.126500
     38 H9           1.9020     1.7450     0.8230 ha         1 8X2       0.126500
     39 H10          4.3620     1.6810     0.9100 ha         1 8X2       0.114000
     40 H11         -1.0020     3.9900    -0.7090 h4         1 8X2       0.020100
     41 H12         -3.4280     3.3260    -0.5470 ha         1 8X2       0.122000
     42 H13         -4.0290    -1.4170     0.0160 ha         1 8X2       0.164000
     43 H14         -8.3290     1.8820    -0.4770 hc         1 8X2       0.063200
     44 H15         -8.2460     1.3090     1.1850 hc         1 8X2       0.063200
     45 H16         -9.0800    -0.2190    -1.3060 h1         1 8X2       0.043700
     46 H17         -9.9180    -0.1060     0.2520 h1         1 8X2       0.043700
     47 H18         -5.5490     2.5330    -0.2090 hn         1 8X2       0.349000
     48 H19         -0.1030    -1.1490    -0.2710 hn         1 8X2       0.510000
     49 H20          4.3230    -2.2600    -0.8570 ha         1 8X2       0.114000
     50 H21          8.1030     1.4210     0.8280 h1         1 8X2       0.039200
     51 H22          8.5750     0.4730     2.2420 h1         1 8X2       0.039200
     52 H24         10.3950     0.9220    -0.2270 h1         1 8X2       0.031033
     53 H25         10.8050    -0.0150     1.2300 h1         1 8X2       0.031033
     54 H26         10.8970    -0.7790    -0.3710 h1         1 8X2       0.031033
     55 H7          -8.9540    -2.2950     0.2880 hn         1 8X2       0.314500
@<TRIPOS>BOND
     1     1     2 1   
     2     1    29 1   
     3     1    31 1   
     4     1    32 1   
     5     2    27 1   
     6     2    33 1   
     7     2    34 1   
     8     3    27 1   
     9     3    28 1   
    10     3    35 1   
    11     3    36 1   
    12     4    16 1   
    13     4    17 1   
    14     4    55 1   
    15     5     6 ar  
    16     5    25 ar  
    17     5    37 1   
    18     6     7 ar  
    19     6    24 1   
    20     7     8 ar  
    21     7    38 1   
    22     8    26 ar  
    23     8    39 1   
    24     9    22 ar  
    25     9    23 ar  
    26     9    24 1   
    27    10    11 ar  
    28    10    22 ar  
    29    10    40 1   
    30    11    12 ar  
    31    11    41 1   
    32    12    13 1   
    33    12    23 ar  
    34    13    14 2   
    35    13    21 1   
    36    14    19 1   
    37    14    42 1   
    38    15    16 1   
    39    15    20 1   
    40    15    43 1   
    41    15    44 1   
    42    16    45 1   
    43    16    46 1   
    44    17    18 2   
    45    17    19 1   
    46    19    20 2   
    47    20    21 1   
    48    21    47 1   
    49    24    48 1   
    50    25    26 ar  
    51    25    49 1   
    52    26    27 1   
    53    28    29 1   
    54    28    50 1   
    55    28    51 1   
    56    29    30 1   
    57    30    52 1   
    58    30    53 1   
    59    30    54 1   
@<TRIPOS>SUBSTRUCTURE
     1 8X2         1 TEMP              0 ****  ****    0 ROOT
