@<TRIPOS>MOLECULE
8X2
   55    59     1     0     0
SMALL
abcg2


@<TRIPOS>ATOM
      1 C1           8.0690    -0.9620    -0.8750 c6         1 8X2       0.157300
      2 C2           6.6210    -1.3000    -0.5710 c6         1 8X2       0.196800
      3 C3           6.6280     0.3890     1.1400 c6         1 8X2       0.196800
      4 N6          -8.3070    -1.4130    -0.1690 ns         1 8X2      -0.511900
      5 C7           2.4100    -1.2840    -0.3500 ca         1 8X2      -0.115000
      6 C8           1.6950    -0.1590     0.0550 ca         1 8X2       0.279000
      7 C9           2.4270     0.9600     0.4570 ca         1 8X2      -0.115000
      8 C10          3.8110     0.9430     0.4300 ca         1 8X2      -0.136500
      9 C11         -0.6550     0.7100     0.0660 ca         1 8X2       0.398900
     10 C12         -1.3000     2.8670     0.0870 ca         1 8X2       0.156900
     11 C13         -2.6300     2.5050     0.0520 ca         1 8X2      -0.298000
     12 C14         -2.8940     1.1310     0.0270 ca         1 8X2       0.264500
     13 C15         -4.2380     0.5890    -0.0040 cc         1 8X2      -0.277500
     14 C16         -4.6440    -0.7260    -0.0580 cd         1 8X2      -0.029000
     15 C19         -7.8900     1.0110     0.0270 c6         1 8X2      -0.026100
     16 C20         -8.7030    -0.0940    -0.6390 c6         1 8X2       0.117000
     17 C21         -7.0170    -1.8150    -0.0630 c          1 8X2       0.605600
     18 O           -6.6940    -2.9900     0.0780 o          1 8X2      -0.558000
     19 C17         -6.0540    -0.7160    -0.0790 cd         1 8X2      -0.243600
     20 C18         -6.4650     0.6030    -0.0300 cc         1 8X2      -0.118300
     21 N5          -5.3700     1.3750     0.0160 na         1 8X2      -0.077000
     22 N3          -0.3010     1.9940     0.0970 nb         1 8X2      -0.236000
     23 N4          -1.9050     0.2450     0.0320 nb         1 8X2      -0.252000
     24 N2           0.3010    -0.2540     0.0640 nu         1 8X2      -0.923900
     25 C6           3.7950    -1.3050    -0.3530 ca         1 8X2      -0.136500
     26 C5           4.5390    -0.1830     0.0260 ca         1 8X2       0.272000
     27 N1           5.9350    -0.1480    -0.0230 nh         1 8X2      -0.785400
     28 C4           8.0720     0.7050     0.8050 c6         1 8X2       0.157300
     29 N            8.7510    -0.4700     0.3020 n3         1 8X2      -0.712600
     30 C           10.1460    -0.2070     0.0370 c3         1 8X2       0.151100
     31 H1           8.5690    -1.8670    -1.2290 h1         1 8X2       0.039200
     32 H2           8.1010    -0.2290    -1.7000 h1         1 8X2       0.039200
     33 H3           6.1430    -1.5970    -1.5060 h1         1 8X2       0.043700
     34 H4           6.5800    -2.1640     0.1100 h1         1 8X2       0.043700
     35 H5           6.1460     1.3050     1.4750 h1         1 8X2       0.043700
     36 H6           6.5940    -0.3240     1.9780 h1         1 8X2       0.043700
     37 H8           1.8760    -2.1740    -0.6640 ha         1 8X2       0.126500
     38 H9           1.9230     1.8570     0.7780 ha         1 8X2       0.126500
     39 H10          4.3260     1.8470     0.7240 ha         1 8X2       0.114000
     40 H11         -1.0220     3.9150     0.1080 h4         1 8X2       0.020100
     41 H12         -3.4010     3.2600     0.0450 ha         1 8X2       0.122000
     42 H13         -3.9910    -1.5830    -0.0850 ha         1 8X2       0.164000
     43 H14         -8.0700     1.9560    -0.4870 hc         1 8X2       0.063200
     44 H15         -8.1980     1.1450     1.0680 hc         1 8X2       0.063200
     45 H16         -8.5820    -0.0220    -1.7250 h1         1 8X2       0.043700
     46 H17         -9.7600     0.0350    -0.4200 h1         1 8X2       0.043700
     47 H18         -5.3880     2.3820     0.0580 hn         1 8X2       0.349000
     48 H19         -0.0710    -1.1860    -0.0350 hn         1 8X2       0.510000
     49 H20          4.2800    -2.2200    -0.6610 ha         1 8X2       0.114000
     50 H21          8.1010     1.5360     0.0790 h1         1 8X2       0.039200
     51 H22          8.5740     1.0500     1.7120 h1         1 8X2       0.039200
     52 H24         10.3030     0.5650    -0.7340 h1         1 8X2       0.031033
     53 H25         10.6450     0.1270     0.9480 h1         1 8X2       0.031033
     54 H26         10.6430    -1.1180    -0.2990 h1         1 8X2       0.031033
     55 H7          -8.9980    -2.1440    -0.2340 hn         1 8X2       0.314500
@<TRIPOS>BOND
     1     1     2 1   
     2     1    29 1   
     3     1    31 1   
     4     1    32 1   
     5     2    27 1   
     6     2    33 1   
     7     2    34 1   
     8     3    27 1   
     9     3    28 1   
    10     3    35 1   
    11     3    36 1   
    12     4    16 1   
    13     4    17 1   
    14     4    55 1   
    15     5     6 ar  
    16     5    25 ar  
    17     5    37 1   
    18     6     7 ar  
    19     6    24 1   
    20     7     8 ar  
    21     7    38 1   
    22     8    26 ar  
    23     8    39 1   
    24     9    22 ar  
    25     9    23 ar  
    26     9    24 1   
    27    10    11 ar  
    28    10    22 ar  
    29    10    40 1   
    30    11    12 ar  
    31    11    41 1   
    32    12    13 1   
    33    12    23 ar  
    34    13    14 2   
    35    13    21 1   
    36    14    19 1   
    37    14    42 1   
    38    15    16 1   
    39    15    20 1   
    40    15    43 1   
    41    15    44 1   
    42    16    45 1   
    43    16    46 1   
    44    17    18 2   
    45    17    19 1   
    46    19    20 2   
    47    20    21 1   
    48    21    47 1   
    49    24    48 1   
    50    25    26 ar  
    51    25    49 1   
    52    26    27 1   
    53    28    29 1   
    54    28    50 1   
    55    28    51 1   
    56    29    30 1   
    57    30    52 1   
    58    30    53 1   
    59    30    54 1   
@<TRIPOS>SUBSTRUCTURE
     1 8X2         1 TEMP              0 ****  ****    0 ROOT
