@<TRIPOS>MOLECULE
8X3
   12    11     1     0     0
SMALL
abcg2


@<TRIPOS>ATOM
      1 C1           1.8960     0.0250    -0.3860 c3         1 8X3       0.193600
      2 C2           0.8170     0.0170     0.6780 c3         1 8X3      -0.359400
      3 O4          -1.7540     0.0200     1.1370 o          1 8X3      -0.699200
      4 O5          -0.9340     1.2650    -0.8240 o          1 8X3      -0.699200
      5 O6           3.1480     0.0120     0.2670 oh         1 8X3      -0.675000
      6 O7          -0.9400    -1.1960    -0.8440 o          1 8X3      -0.699200
      7 S3          -0.8430     0.0280    -0.0240 s6         1 8X3       1.324600
      8 H012         1.7730    -0.8500    -1.0340 h1         1 8X3       0.025700
      9 H011         1.7800     0.9140    -1.0150 h1         1 8X3       0.025700
     10 H022         0.8970    -0.8730     1.3060 h1         1 8X3       0.074200
     11 H021         0.9010     0.8960     1.3210 h1         1 8X3       0.074200
     12 H061         3.8330     0.0220    -0.4090 ho         1 8X3       0.413000
@<TRIPOS>BOND
     1     1     2 1   
     2     1     5 1   
     3     1     8 1   
     4     1     9 1   
     5     2     7 1   
     6     2    10 1   
     7     2    11 1   
     8     3     7 1   
     9     4     7 1   
    10     5    12 1   
    11     6     7 1   
@<TRIPOS>SUBSTRUCTURE
     1 8X3         1 TEMP              0 ****  ****    0 ROOT
