@<TRIPOS>MOLECULE
8X3
   12    11     1     0     0
SMALL
No Charge or Current Charge


@<TRIPOS>ATOM
      1 C1           1.8820     0.0250    -0.3870 c3         1 8X3       0.193600
      2 C2           0.7960     0.0170     0.6880 c3         1 8X3      -0.359400
      3 O4          -1.7370     0.0190     1.1460 o          1 8X3      -0.699200
      4 O5          -0.8930     1.2720    -0.8110 o          1 8X3      -0.699200
      5 O6           3.1520     0.0150     0.2660 oh         1 8X3      -0.675000
      6 O7          -0.8990    -1.2020    -0.8330 o          1 8X3      -0.699200
      7 S3          -0.8540     0.0280    -0.0290 s6         1 8X3       1.324600
      8 H012         1.7800    -0.8590    -1.0320 h1         1 8X3       0.025700
      9 H011         1.7840     0.9210    -1.0150 h1         1 8X3       0.025700
     10 H022         0.8630    -0.8850     1.3030 h1         1 8X3       0.074200
     11 H021         0.8670     0.9080     1.3200 h1         1 8X3       0.074200
     12 H061         3.8340     0.0200    -0.4420 ho         1 8X3       0.413000
@<TRIPOS>BOND
     1     1     2 1   
     2     1     5 1   
     3     1     8 1   
     4     1     9 1   
     5     2     7 1   
     6     2    10 1   
     7     2    11 1   
     8     3     7 1   
     9     4     7 1   
    10     5    12 1   
    11     6     7 1   
@<TRIPOS>SUBSTRUCTURE
     1 8X3         1 TEMP              0 ****  ****    0 ROOT
