@<TRIPOS>MOLECULE
8X5
   55    59     1     0     0
SMALL
bcc


@<TRIPOS>ATOM
      1 C1          -8.6470    -0.7980     0.1670 ca         1 8X5      -0.130000
      2 C2          -7.6280    -0.6560    -0.7660 ca         1 8X5      -0.119000
      3 C3          -6.2950    -0.7770    -0.3900 ca         1 8X5      -0.102300
      4 C7          -4.1270     1.4220    -0.7090 c6         1 8X5       0.113000
      5 C8          -3.2450     1.9270     0.4260 c6         1 8X5      -0.027100
      6 C9          -1.9010     1.3400     0.2220 cc         1 8X5      -0.066600
      7 C10         -1.7000     0.1450    -0.4390 cd         1 8X5      -0.243600
      8 C11         -0.3180    -0.1370    -0.4010 cd         1 8X5      -0.049000
      9 C12          0.2820     0.9020     0.2750 cc         1 8X5      -0.224800
     10 C13          1.6850     1.1110     0.5780 ca         1 8X5       0.593800
     11 C14          2.1510     2.2360     1.2660 ca         1 8X5      -0.454600
     12 C15          3.5140     2.2950     1.4780 ca         1 8X5       0.486200
     13 C16          3.8190     0.3210     0.4310 ca         1 8X5       0.923900
     14 C19          8.2520     0.0840    -0.8750 c6         1 8X5       0.133400
     15 C20          8.1470    -2.0350     0.1070 c6         1 8X5       0.133400
     16 C21          6.6260    -2.0640     0.0690 c6         1 8X5      -0.132400
     17 C22         -2.8100    -0.6500    -0.9560 c          1 8X5       0.754100
     18 O1          -2.6630    -1.8030    -1.3480 o          1 8X5      -0.633500
     19 N           -4.0160    -0.0180    -0.9250 n          1 8X5      -0.484800
     20 C6          -5.2040    -0.6710    -1.4280 c3         1 8X5       0.140300
     21 C4          -5.9960    -1.0330     0.9470 ca         1 8X5      -0.119000
     22 C5          -7.0110    -1.1700     1.8830 ca         1 8X5      -0.130000
     23 C           -8.3400    -1.0560     1.4970 ca         1 8X5      -0.128000
     24 N1          -0.7100     1.7840     0.6480 na         1 8X5      -0.129100
     25 N3           2.5190     0.1640     0.1650 nb         1 8X5      -0.781000
     26 N2           4.3620     1.3630     1.0740 nb         1 8X5      -0.777000
     27 N4           4.6360    -0.6690     0.0250 nu         1 8X5      -0.863900
     28 C17          6.0770    -0.6430     0.1230 c6         1 8X5       0.250500
     29 O            8.6910    -1.2560    -0.9350 os         1 8X5      -0.402600
     30 C18          6.7370     0.1930    -0.9730 c6         1 8X5      -0.132400
     31 H1          -9.6790    -0.6990    -0.1430 ha         1 8X5       0.130000
     32 H2          -7.8750    -0.4430    -1.8000 ha         1 8X5       0.133500
     33 H3          -5.1690     1.6450    -0.4820 h1         1 8X5       0.049200
     34 H4          -3.8740     1.9530    -1.6320 h1         1 8X5       0.049200
     35 H5          -3.2290     3.0170     0.4120 hc         1 8X5       0.063700
     36 H6          -3.6500     1.6210     1.3960 hc         1 8X5       0.063700
     37 H7           0.1900    -0.9900    -0.8210 ha         1 8X5       0.182000
     38 H8           1.5100     3.0300     1.6180 ha         1 8X5       0.138000
     39 H9           3.9450     3.1430     2.0000 h4         1 8X5       0.017100
     40 H11          8.7290     0.6140    -1.7020 h1         1 8X5       0.047200
     41 H12          8.4780    -1.6520     1.0830 h1         1 8X5       0.047200
     42 H13          8.5500    -3.0440    -0.0030 h1         1 8X5       0.047200
     43 H14          6.2910    -2.5570    -0.8510 hc         1 8X5       0.058450
     44 H15          6.2540    -2.6520     0.9110 hc         1 8X5       0.058450
     45 H16         -4.9290    -1.6650    -1.7790 h1         1 8X5       0.065700
     46 H17         -5.5800    -0.1260    -2.3010 h1         1 8X5       0.065700
     47 H18         -4.9630    -1.1200     1.2620 ha         1 8X5       0.133500
     48 H19         -6.7620    -1.3660     2.9180 ha         1 8X5       0.130000
     49 H20         -9.1310    -1.1610     2.2280 ha         1 8X5       0.130000
     50 H21         -0.5750     2.6370     1.1680 hn         1 8X5       0.298700
     51 H22          4.2090    -1.3930    -0.5320 hn         1 8X5       0.449800
     52 H23          6.3400    -0.2100     1.0930 h1         1 8X5       0.076700
     53 H24          6.4430     1.2410    -0.8810 hc         1 8X5       0.058450
     54 H25          6.4000    -0.1610    -1.9520 hc         1 8X5       0.058450
     55 H10          8.5950     0.5550     0.0580 h1         1 8X5       0.047200
@<TRIPOS>BOND
     1     1     2 ar  
     2     1    23 ar  
     3     1    31 1   
     4     2     3 ar  
     5     2    32 1   
     6     3    20 1   
     7     3    21 ar  
     8     4     5 1   
     9     4    19 1   
    10     4    33 1   
    11     4    34 1   
    12     5     6 1   
    13     5    35 1   
    14     5    36 1   
    15     6     7 2   
    16     6    24 1   
    17     7     8 1   
    18     7    17 1   
    19     8     9 2   
    20     8    37 1   
    21     9    10 1   
    22     9    24 1   
    23    10    11 ar  
    24    10    25 ar  
    25    11    12 ar  
    26    11    38 1   
    27    12    26 ar  
    28    12    39 1   
    29    13    25 ar  
    30    13    26 ar  
    31    13    27 1   
    32    14    29 1   
    33    14    30 1   
    34    14    40 1   
    35    14    55 1   
    36    15    16 1   
    37    15    29 1   
    38    15    41 1   
    39    15    42 1   
    40    16    28 1   
    41    16    43 1   
    42    16    44 1   
    43    17    18 2   
    44    17    19 1   
    45    19    20 1   
    46    20    45 1   
    47    20    46 1   
    48    21    22 ar  
    49    21    47 1   
    50    22    23 ar  
    51    22    48 1   
    52    23    49 1   
    53    24    50 1   
    54    27    28 1   
    55    27    51 1   
    56    28    30 1   
    57    28    52 1   
    58    30    53 1   
    59    30    54 1   
@<TRIPOS>SUBSTRUCTURE
     1 8X5         1 TEMP              0 ****  ****    0 ROOT
