@<TRIPOS>MOLECULE
8X5
   55    59     1     0     0
SMALL
No Charge or Current Charge


@<TRIPOS>ATOM
      1 C1          -7.9870    -0.6750     1.1730 ca         1 8X5      -0.112000
      2 C2          -7.2450    -0.2520     0.0560 ca         1 8X5      -0.101000
      3 C3          -6.1220    -0.9880    -0.3710 ca         1 8X5      -0.102300
      4 C7          -4.2970     1.7410    -1.0740 c6         1 8X5       0.113000
      5 C8          -3.3990     2.3810     0.0100 c6         1 8X5      -0.027100
      6 C9          -2.0260     1.7870    -0.0950 cc         1 8X5      -0.117300
      7 C10         -1.7760     0.5330    -0.5800 cd         1 8X5      -0.243600
      8 C11         -0.3950     0.2640    -0.4530 cd         1 8X5      -0.031000
      9 C12          0.2020     1.3740     0.0930 cc         1 8X5      -0.275500
     10 C13          1.6320     1.4710     0.4000 ca         1 8X5       0.265500
     11 C14          2.1760     2.6630     0.9140 ca         1 8X5      -0.306000
     12 C15          3.5510     2.6910     1.1940 ca         1 8X5       0.157900
     13 C16          3.7210     0.5230     0.4860 ca         1 8X5       0.397900
     14 C19          8.1510    -0.3160    -0.8360 c6         1 8X5       0.156600
     15 C20          7.8960    -2.3310     0.4840 c6         1 8X5       0.156600
     16 C21          6.3560    -2.1960     0.4990 c6         1 8X5      -0.132400
     17 C22         -2.8540    -0.3520    -1.0940 c          1 8X5       0.611600
     18 O1          -2.6560    -1.5200    -1.4020 o          1 8X5      -0.558000
     19 N           -4.1250     0.2660    -1.1950 n          1 8X5      -0.417800
     20 C6          -5.3120    -0.5290    -1.5760 c3         1 8X5       0.140300
     21 C4          -5.7490    -2.1510     0.3320 ca         1 8X5      -0.101000
     22 C5          -6.4910    -2.5730     1.4490 ca         1 8X5      -0.112000
     23 C           -7.6100    -1.8360     1.8700 ca         1 8X5      -0.110000
     24 N1          -0.8060     2.3130     0.3280 na         1 8X5      -0.078000
     25 N3           2.4180     0.3950     0.1890 nb         1 8X5      -0.255000
     26 N2           4.3310     1.6170     0.9810 nb         1 8X5      -0.251000
     27 N4           4.4890    -0.6120     0.2570 nu         1 8X5      -0.919100
     28 C17          5.9530    -0.7090     0.3650 c6         1 8X5       0.249500
     29 O            8.4260    -1.7290    -0.7160 os         1 8X5      -0.449000
     30 C18          6.6250    -0.0820    -0.8810 c6         1 8X5      -0.132400
     31 H1          -8.8530    -0.1020     1.4990 ha         1 8X5       0.112000
     32 H2          -7.5430     0.6490    -0.4760 ha         1 8X5       0.115500
     33 H3          -5.3480     1.9830    -0.8610 h1         1 8X5       0.049200
     34 H4          -4.0510     2.1920    -2.0460 h1         1 8X5       0.049200
     35 H5          -3.3830     3.4720    -0.1100 hc         1 8X5       0.063700
     36 H6          -3.8250     2.1750     1.0010 hc         1 8X5       0.063700
     37 H7           0.0990    -0.6620    -0.7410 ha         1 8X5       0.164000
     38 H8           1.5630     3.5400     1.0910 ha         1 8X5       0.120000
     39 H9           4.0330     3.5820     1.5930 h4         1 8X5       0.017100
     40 H11          8.6180     0.0630    -1.7560 h1         1 8X5       0.047200
     41 H12          8.3340    -1.8390     1.3640 h1         1 8X5       0.047200
     42 H13          8.1810    -3.3930     0.5080 h1         1 8X5       0.047200
     43 H14          5.9330    -2.7850    -0.3260 hc         1 8X5       0.058450
     44 H15          5.9560    -2.6150     1.4320 hc         1 8X5       0.058450
     45 H16         -5.0090    -1.4040    -2.1650 h1         1 8X5       0.065700
     46 H17         -5.9510     0.0780    -2.2320 h1         1 8X5       0.065700
     47 H18         -4.8810    -2.7250     0.0140 ha         1 8X5       0.115500
     48 H19         -6.1970    -3.4710     1.9880 ha         1 8X5       0.112000
     49 H20         -8.1840    -2.1620     2.7340 ha         1 8X5       0.112000
     50 H21         -0.6790     3.2280     0.7510 hn         1 8X5       0.349000
     51 H22          3.9770    -1.4080    -0.1220 hn         1 8X5       0.505000
     52 H23          6.3080    -0.1830     1.2670 h1         1 8X5       0.076700
     53 H24          6.4180     0.9950    -0.9270 hc         1 8X5       0.058450
     54 H25          6.2150    -0.5250    -1.7980 hc         1 8X5       0.058450
     55 H10          8.5970     0.2160     0.0180 h1         1 8X5       0.047200
@<TRIPOS>BOND
     1     1     2 ar  
     2     1    23 ar  
     3     1    31 1   
     4     2     3 ar  
     5     2    32 1   
     6     3    20 1   
     7     3    21 ar  
     8     4     5 1   
     9     4    19 1   
    10     4    33 1   
    11     4    34 1   
    12     5     6 1   
    13     5    35 1   
    14     5    36 1   
    15     6     7 2   
    16     6    24 1   
    17     7     8 1   
    18     7    17 1   
    19     8     9 2   
    20     8    37 1   
    21     9    10 1   
    22     9    24 1   
    23    10    11 ar  
    24    10    25 ar  
    25    11    12 ar  
    26    11    38 1   
    27    12    26 ar  
    28    12    39 1   
    29    13    25 ar  
    30    13    26 ar  
    31    13    27 1   
    32    14    29 1   
    33    14    30 1   
    34    14    40 1   
    35    14    55 1   
    36    15    16 1   
    37    15    29 1   
    38    15    41 1   
    39    15    42 1   
    40    16    28 1   
    41    16    43 1   
    42    16    44 1   
    43    17    18 2   
    44    17    19 1   
    45    19    20 1   
    46    20    45 1   
    47    20    46 1   
    48    21    22 ar  
    49    21    47 1   
    50    22    23 ar  
    51    22    48 1   
    52    23    49 1   
    53    24    50 1   
    54    27    28 1   
    55    27    51 1   
    56    28    30 1   
    57    28    52 1   
    58    30    53 1   
    59    30    54 1   
@<TRIPOS>SUBSTRUCTURE
     1 8X5         1 TEMP              0 ****  ****    0 ROOT
