@<TRIPOS>MOLECULE
8X6
   36    38     1     0     0
SMALL
bcc


@<TRIPOS>ATOM
      1 C6         -27.1740    10.4920   -14.7910 ca         1 8X6      -0.136500
      2 C1         -24.1550    10.1910   -17.0120 cc         1 8X6       0.457800
      3 C2         -25.5550    10.2100   -16.5680 ca         1 8X6      -0.123500
      4 C5         -28.2130    10.2450   -15.6780 ca         1 8X6      -0.120000
      5 C4         -27.9220     9.9810   -17.0110 ca         1 8X6      -0.136500
      6 C3         -26.6090     9.9630   -17.4520 ca         1 8X6      -0.102500
      7 C9         -19.5610     9.9470   -16.4780 c6         1 8X6       0.177300
      8 C10        -19.2730     8.4850   -16.1430 c6         1 8X6       0.068500
      9 C13        -20.8670    10.1740   -14.4600 c6         1 8X6       0.177300
     10 O          -18.2900     8.3220   -12.6870 o          1 8X6      -0.632100
     11 N3         -17.0720     7.7660   -14.5080 nt         1 8X6      -0.651000
     12 N2         -19.3320     8.2820   -14.7060 n          1 8X6      -0.489800
     13 C12        -20.5930     8.7130   -14.1260 c6         1 8X6       0.068500
     14 N1         -20.8260    10.3660   -15.9030 nh         1 8X6      -0.743300
     15 C          -21.9820    10.2450   -16.6010 cd         1 8X6       0.706300
     16 S          -21.9960    10.0970   -18.3430 ss         1 8X6      -0.255300
     17 C8         -23.7210    10.0950   -18.2970 cd         1 8X6      -0.214400
     18 N          -23.1640    10.2710   -16.0680 nc         1 8X6      -0.731000
     19 C7         -25.8580    10.4740   -15.2310 ca         1 8X6      -0.102500
     20 H1         -27.3870    10.7010   -13.7510 ha         1 8X6       0.130000
     21 H2         -29.2390    10.2570   -15.3350 ha         1 8X6       0.130000
     22 H3         -28.7230     9.7830   -17.7120 ha         1 8X6       0.130000
     23 H4         -26.4100     9.7450   -18.4940 ha         1 8X6       0.139000
     24 H5         -19.5470    10.1030   -17.5570 h1         1 8X6       0.075700
     25 H6         -18.7730    10.5790   -16.0610 h1         1 8X6       0.075700
     26 H7         -20.0150     7.8430   -16.6270 h1         1 8X6       0.067200
     27 H8         -18.3040     8.2140   -16.5520 h1         1 8X6       0.067200
     28 H9         -20.1010    10.8120   -14.0120 h1         1 8X6       0.075700
     29 H10        -21.8340    10.4870   -14.0740 h1         1 8X6       0.075700
     30 H11        -16.3400     7.4960   -13.8710 hn         1 8X6       0.299000
     31 H12        -17.0900     7.2090   -15.3470 hn         1 8X6       0.299000
     32 H13        -21.3950     8.0930   -14.5370 h1         1 8X6       0.067200
     33 H14        -20.5780     8.5630   -13.0510 h1         1 8X6       0.067200
     34 H15        -24.2900    10.0270   -19.2100 h4         1 8X6       0.179000
     35 H16        -25.0570    10.6670   -14.5310 ha         1 8X6       0.139000
     36 C11        -18.2390     8.1310   -13.8960 c          1 8X6       0.770100
@<TRIPOS>BOND
     1     1     4 ar  
     2     1    19 ar  
     3     1    20 1   
     4     2     3 1   
     5     2    17 2   
     6     2    18 1   
     7     3     6 ar  
     8     3    19 ar  
     9     4     5 ar  
    10     4    21 1   
    11     5     6 ar  
    12     5    22 1   
    13     6    23 1   
    14     7     8 1   
    15     7    14 1   
    16     7    24 1   
    17     7    25 1   
    18     8    12 1   
    19     8    26 1   
    20     8    27 1   
    21     9    13 1   
    22     9    14 1   
    23     9    28 1   
    24     9    29 1   
    25    10    36 2   
    26    11    30 1   
    27    11    31 1   
    28    11    36 1   
    29    12    13 1   
    30    12    36 1   
    31    13    32 1   
    32    13    33 1   
    33    14    15 1   
    34    15    16 1   
    35    15    18 2   
    36    16    17 1   
    37    17    34 1   
    38    19    35 1   
@<TRIPOS>SUBSTRUCTURE
     1 8X6         1 TEMP              0 ****  ****    0 ROOT
