@<TRIPOS>MOLECULE
8X6
   36    38     1     0     0
SMALL
No Charge or Current Charge


@<TRIPOS>ATOM
      1 C6         -27.3330    10.7610   -15.0200 ca         1 8X6      -0.118500
      2 C1         -24.0740    10.1680   -16.8760 cc         1 8X6       0.392500
      3 C2         -25.5050    10.1310   -16.5290 ca         1 8X6      -0.123500
      4 C5         -28.2380    10.0080   -15.7840 ca         1 8X6      -0.102000
      5 C4         -27.7820     9.3030   -16.9080 ca         1 8X6      -0.118500
      6 C3         -26.4260     9.3560   -17.2750 ca         1 8X6      -0.084500
      7 C9         -19.4230    10.4290   -16.4240 c6         1 8X6       0.177300
      8 C10        -18.9930     8.9810   -16.0570 c6         1 8X6       0.068500
      9 C13        -20.7220    10.6690   -14.3800 c6         1 8X6       0.177300
     10 O          -18.9710     6.9560   -12.9980 o          1 8X6      -0.632100
     11 N3         -17.7830     6.7300   -14.8610 nt         1 8X6      -0.584000
     12 N2         -19.2210     8.5720   -14.6260 n          1 8X6      -0.422800
     13 C12        -20.3680     9.2320   -13.9130 c6         1 8X6       0.068500
     14 N1         -20.7600    10.7370   -15.8620 nh         1 8X6      -0.743300
     15 C          -21.9340    10.4460   -16.5680 cd         1 8X6       0.706300
     16 S          -21.9260    10.0650   -18.2920 ss         1 8X6      -0.110400
     17 C8         -23.6720     9.9260   -18.1690 cd         1 8X6      -0.276000
     18 N          -23.1030    10.4780   -15.9610 nc         1 8X6      -0.731000
     19 C7         -25.9760    10.8150   -15.3840 ca         1 8X6      -0.084500
     20 H1         -27.6810    11.3020   -14.1420 ha         1 8X6       0.112000
     21 H2         -29.2880     9.9650   -15.5000 ha         1 8X6       0.112000
     22 H3         -28.4790     8.7080   -17.4930 ha         1 8X6       0.112000
     23 H4         -26.0990     8.7810   -18.1370 ha         1 8X6       0.121000
     24 H5         -19.3860    10.5650   -17.5140 h1         1 8X6       0.075700
     25 H6         -18.6810    11.1260   -16.0060 h1         1 8X6       0.075700
     26 H7         -19.5470     8.2840   -16.7030 h1         1 8X6       0.067200
     27 H8         -17.9280     8.8800   -16.3100 h1         1 8X6       0.067200
     28 H9         -19.9550    11.3590   -13.9960 h1         1 8X6       0.075700
     29 H10        -21.6720    10.9820   -13.9230 h1         1 8X6       0.075700
     30 H11        -17.3710     5.8790   -14.5100 hn         1 8X6       0.299000
     31 H12        -17.5340     7.0840   -15.7700 hn         1 8X6       0.299000
     32 H13        -21.2570     8.6000   -14.0470 h1         1 8X6       0.067200
     33 H14        -20.1600     9.2620   -12.8340 h1         1 8X6       0.067200
     34 H15        -24.2730     9.6990   -19.0390 h4         1 8X6       0.161000
     35 H16        -25.2910    11.4020   -14.7760 ha         1 8X6       0.121000
     36 C11        -18.6740     7.3890   -14.0970 c          1 8X6       0.636100
@<TRIPOS>BOND
     1     1     4 ar  
     2     1    19 ar  
     3     1    20 1   
     4     2     3 1   
     5     2    17 2   
     6     2    18 1   
     7     3     6 ar  
     8     3    19 ar  
     9     4     5 ar  
    10     4    21 1   
    11     5     6 ar  
    12     5    22 1   
    13     6    23 1   
    14     7     8 1   
    15     7    14 1   
    16     7    24 1   
    17     7    25 1   
    18     8    12 1   
    19     8    26 1   
    20     8    27 1   
    21     9    13 1   
    22     9    14 1   
    23     9    28 1   
    24     9    29 1   
    25    10    36 2   
    26    11    30 1   
    27    11    31 1   
    28    11    36 1   
    29    12    13 1   
    30    12    36 1   
    31    13    32 1   
    32    13    33 1   
    33    14    15 1   
    34    15    16 1   
    35    15    18 2   
    36    16    17 1   
    37    17    34 1   
    38    19    35 1   
@<TRIPOS>SUBSTRUCTURE
     1 8X6         1 TEMP              0 ****  ****    0 ROOT
