@<TRIPOS>MOLECULE
8X8
   57    58     1     0     0
SMALL
No Charge or Current Charge


@<TRIPOS>ATOM
      1 C2           1.1310    -4.4200     0.2140 c3         1 8X8       0.225000
      2 C3           2.0650    -5.4810    -0.4110 c3         1 8X8      -0.108767
      3 C4          -0.3080    -4.5940    -0.3360 c3         1 8X8      -0.108767
      4 C5           1.2040    -4.4980     1.7610 c3         1 8X8      -0.108767
      5 O1           1.6740    -3.1570    -0.2360 os         1 8X8      -0.475100
      6 C36          1.1120    -1.9570     0.1000 c          1 8X8       0.658100
      7 O37          0.1370    -1.7690     0.8080 o          1 8X8      -0.556000
      8 N38          1.8230    -0.9680    -0.5160 ns         1 8X8      -0.506900
      9 C40          1.5010     0.4640    -0.4570 c3         1 8X8       0.108700
     10 C42          2.7880     1.2820    -0.1580 c3         1 8X8      -0.059400
     11 C45          2.6420     2.8320    -0.0920 c5         1 8X8      -0.152700
     12 C47          1.6480     3.3730     0.9490 c          1 8X8       0.562000
     13 O48          0.6740     2.8400     1.4540 o          1 8X8      -0.573000
     14 N49          2.1900     4.5370     1.4180 ns         1 8X8      -0.508900
     15 C51          3.4230     4.9480     0.7520 c5         1 8X8       0.098000
     16 C54          3.9590     3.5700     0.2790 c5         1 8X8      -0.092400
     17 C57          0.7200     0.9270    -1.7260 c3         1 8X8       0.065300
     18 O58          1.5550     0.8060    -2.9100 oh         1 8X8      -0.659000
     19 C66         -0.6060     0.1270    -1.8940 c          1 8X8       0.567100
     20 O67         -0.7460    -0.7310    -2.7580 o          1 8X8      -0.626100
     21 N68         -1.6300     0.4810    -1.0450 ns         1 8X8      -0.480900
     22 C70         -2.9300    -0.1810    -1.0110 c3         1 8X8       0.154300
     23 C73         -3.6890     0.1800     0.2560 ca         1 8X8      -0.118300
     24 C74         -3.3830    -0.4670     1.4690 ca         1 8X8      -0.091500
     25 C76         -4.6940     1.1660     0.2300 ca         1 8X8      -0.091500
     26 C78         -5.3890     1.4990     1.4060 ca         1 8X8      -0.115500
     27 C80         -5.0820     0.8490     2.6140 ca         1 8X8      -0.103000
     28 C82         -4.0780    -0.1330     2.6450 ca         1 8X8      -0.115500
     29 H1           2.0590    -5.4090    -1.5050 hc         1 8X8       0.049256
     30 H2           3.0970    -5.3430    -0.0650 hc         1 8X8       0.049256
     31 H3           1.7470    -6.4930    -0.1340 hc         1 8X8       0.049256
     32 H4          -1.0270    -3.9500     0.1820 hc         1 8X8       0.049256
     33 H5          -0.3460    -4.3620    -1.4070 hc         1 8X8       0.049256
     34 H6          -0.6460    -5.6290    -0.2020 hc         1 8X8       0.049256
     35 H7           1.0120    -5.5230     2.1010 hc         1 8X8       0.049256
     36 H8           2.1970    -4.2030     2.1200 hc         1 8X8       0.049256
     37 H9           0.4580    -3.8550     2.2400 hc         1 8X8       0.049256
     38 H10          2.6020    -1.2740    -1.0840 hn         1 8X8       0.325500
     39 H11          0.8290     0.6080     0.3990 h1         1 8X8       0.104700
     40 H12          3.1980     0.9220     0.7940 hc         1 8X8       0.055700
     41 H13          3.5400     1.0340    -0.9180 hc         1 8X8       0.055700
     42 H14          2.3220     3.2090    -1.0700 hc         1 8X8       0.082700
     43 H15          1.7230     5.0290     2.1720 hn         1 8X8       0.329500
     44 H16          3.2160     5.6140    -0.0970 h1         1 8X8       0.047200
     45 H17          4.1260     5.4540     1.4280 h1         1 8X8       0.047200
     46 H18          4.4850     3.0610     1.0960 hc         1 8X8       0.060200
     47 H19          4.6590     3.6540    -0.5610 hc         1 8X8       0.060200
     48 H20          0.4240     1.9750    -1.5860 h1         1 8X8       0.083700
     49 H21          1.2090     0.0250    -3.4040 ho         1 8X8       0.473000
     50 H22         -1.4470     1.2060    -0.3610 hn         1 8X8       0.339500
     51 H23         -3.5060     0.1180    -1.8970 h1         1 8X8       0.058200
     52 H24         -2.7820    -1.2690    -1.0520 h1         1 8X8       0.058200
     53 H25         -2.6040    -1.2270     1.5020 ha         1 8X8       0.125500
     54 H26         -4.9380     1.6760    -0.7000 ha         1 8X8       0.125500
     55 H27         -6.1650     2.2610     1.3810 ha         1 8X8       0.112000
     56 H28         -5.6200     1.1070     3.5230 ha         1 8X8       0.110000
     57 H29         -3.8380    -0.6360     3.5790 ha         1 8X8       0.112000
@<TRIPOS>BOND
     1     1     2 1   
     2     1     3 1   
     3     1     4 1   
     4     1     5 1   
     5     2    29 1   
     6     2    30 1   
     7     2    31 1   
     8     3    32 1   
     9     3    33 1   
    10     3    34 1   
    11     4    35 1   
    12     4    36 1   
    13     4    37 1   
    14     5     6 1   
    15     6     7 2   
    16     6     8 1   
    17     8     9 1   
    18     8    38 1   
    19     9    10 1   
    20     9    17 1   
    21     9    39 1   
    22    10    11 1   
    23    10    40 1   
    24    10    41 1   
    25    11    12 1   
    26    11    16 1   
    27    11    42 1   
    28    12    13 2   
    29    12    14 1   
    30    14    15 1   
    31    14    43 1   
    32    15    16 1   
    33    15    44 1   
    34    15    45 1   
    35    16    46 1   
    36    16    47 1   
    37    17    18 1   
    38    17    19 1   
    39    17    48 1   
    40    18    49 1   
    41    19    20 2   
    42    19    21 1   
    43    21    22 1   
    44    21    50 1   
    45    22    23 1   
    46    22    51 1   
    47    22    52 1   
    48    23    24 ar  
    49    23    25 ar  
    50    24    28 ar  
    51    24    53 1   
    52    25    26 ar  
    53    25    54 1   
    54    26    27 ar  
    55    26    55 1   
    56    27    28 ar  
    57    27    56 1   
    58    28    57 1   
@<TRIPOS>SUBSTRUCTURE
     1 8X8         1 TEMP              0 ****  ****    0 ROOT
