@<TRIPOS>MOLECULE
8X8
   57    58     1     0     0
SMALL
abcg2


@<TRIPOS>ATOM
      1 C2           1.0000    -4.3810     0.1190 c3         1 8X8       0.225000
      2 C3           1.8600    -5.4190    -0.5930 c3         1 8X8      -0.108767
      3 C4          -0.4350    -4.4680    -0.3880 c3         1 8X8      -0.108767
      4 C5           1.0840    -4.5880     1.6270 c3         1 8X8      -0.108767
      5 O1           1.6180    -3.1270    -0.2670 os         1 8X8      -0.475100
      6 C36          1.1300    -1.9440     0.1040 c          1 8X8       0.658100
      7 O37          0.1630    -1.7720     0.8170 o          1 8X8      -0.556000
      8 N38          1.8900    -0.9510    -0.4120 ns         1 8X8      -0.506900
      9 C40          1.5070     0.4430    -0.3650 c3         1 8X8       0.108700
     10 C42          2.7410     1.2890    -0.0530 c3         1 8X8      -0.059400
     11 C45          2.5620     2.8020    -0.0970 c5         1 8X8      -0.152700
     12 C47          1.4510     3.3760     0.7760 c          1 8X8       0.562000
     13 O48          0.3260     2.9200     0.9280 o          1 8X8      -0.573000
     14 N49          1.9150     4.5060     1.3280 ns         1 8X8      -0.508900
     15 C51          3.2460     4.8870     0.9020 c5         1 8X8       0.098000
     16 C54          3.8020     3.5660     0.3740 c5         1 8X8      -0.092400
     17 C57          0.8170     0.8440    -1.6840 c3         1 8X8       0.065300
     18 O58          1.6440     0.6140    -2.7870 oh         1 8X8      -0.659000
     19 C66         -0.4790     0.0560    -1.8220 c          1 8X8       0.567100
     20 O67         -0.5450    -0.9060    -2.5760 o          1 8X8      -0.626100
     21 N68         -1.4850     0.4710    -1.0510 ns         1 8X8      -0.480900
     22 C70         -2.7190    -0.2780    -0.9080 c3         1 8X8       0.154300
     23 C73         -3.4650     0.1680     0.3190 ca         1 8X8      -0.118300
     24 C74         -2.9280    -0.0560     1.5860 ca         1 8X8      -0.091500
     25 C76         -4.6910     0.8150     0.2090 ca         1 8X8      -0.091500
     26 C78         -5.3770     1.2270     1.3450 ca         1 8X8      -0.115500
     27 C80         -4.8380     1.0000     2.6030 ca         1 8X8      -0.103000
     28 C82         -3.6100     0.3580     2.7200 ca         1 8X8      -0.115500
     29 H1           1.8010    -5.3080    -1.6770 hc         1 8X8       0.049256
     30 H2           2.9070    -5.3400    -0.2950 hc         1 8X8       0.049256
     31 H3           1.5160    -6.4210    -0.3400 hc         1 8X8       0.049256
     32 H4          -1.1100    -3.8120     0.1550 hc         1 8X8       0.049256
     33 H5          -0.4890    -4.2190    -1.4490 hc         1 8X8       0.049256
     34 H6          -0.7930    -5.4920    -0.2690 hc         1 8X8       0.049256
     35 H7           0.7660    -5.6030     1.8680 hc         1 8X8       0.049256
     36 H8           2.1100    -4.4710     1.9810 hc         1 8X8       0.049256
     37 H9           0.4450    -3.9000     2.1770 hc         1 8X8       0.049256
     38 H10          2.6310    -1.2050    -1.0460 hn         1 8X8       0.325500
     39 H11          0.7930     0.5600     0.4470 h1         1 8X8       0.104700
     40 H12          3.0960     1.0010     0.9400 hc         1 8X8       0.055700
     41 H13          3.5440     1.0340    -0.7510 hc         1 8X8       0.055700
     42 H14          2.3290     3.1160    -1.1220 hc         1 8X8       0.082700
     43 H15          1.3160     5.1260     1.8510 hn         1 8X8       0.329500
     44 H16          3.2040     5.6510     0.1210 h1         1 8X8       0.047200
     45 H17          3.8260     5.2870     1.7330 h1         1 8X8       0.047200
     46 H18          4.2850     3.0180     1.1860 hc         1 8X8       0.060200
     47 H19          4.5380     3.7090    -0.4160 hc         1 8X8       0.060200
     48 H20          0.5700     1.9090    -1.6450 h1         1 8X8       0.083700
     49 H21          1.3720    -0.2300    -3.1740 ho         1 8X8       0.473000
     50 H22         -1.3450     1.2810    -0.4650 hn         1 8X8       0.339500
     51 H23         -3.3470    -0.1540    -1.7930 h1         1 8X8       0.058200
     52 H24         -2.4740    -1.3400    -0.8320 h1         1 8X8       0.058200
     53 H25         -1.9750    -0.5640     1.6790 ha         1 8X8       0.125500
     54 H26         -5.1140     0.9980    -0.7720 ha         1 8X8       0.125500
     55 H27         -6.3310     1.7290     1.2440 ha         1 8X8       0.112000
     56 H28         -5.3710     1.3170     3.4900 ha         1 8X8       0.110000
     57 H29         -3.1860     0.1760     3.6990 ha         1 8X8       0.112000
@<TRIPOS>BOND
     1     1     2 1   
     2     1     3 1   
     3     1     4 1   
     4     1     5 1   
     5     2    29 1   
     6     2    30 1   
     7     2    31 1   
     8     3    32 1   
     9     3    33 1   
    10     3    34 1   
    11     4    35 1   
    12     4    36 1   
    13     4    37 1   
    14     5     6 1   
    15     6     7 2   
    16     6     8 1   
    17     8     9 1   
    18     8    38 1   
    19     9    10 1   
    20     9    17 1   
    21     9    39 1   
    22    10    11 1   
    23    10    40 1   
    24    10    41 1   
    25    11    12 1   
    26    11    16 1   
    27    11    42 1   
    28    12    13 2   
    29    12    14 1   
    30    14    15 1   
    31    14    43 1   
    32    15    16 1   
    33    15    44 1   
    34    15    45 1   
    35    16    46 1   
    36    16    47 1   
    37    17    18 1   
    38    17    19 1   
    39    17    48 1   
    40    18    49 1   
    41    19    20 2   
    42    19    21 1   
    43    21    22 1   
    44    21    50 1   
    45    22    23 1   
    46    22    51 1   
    47    22    52 1   
    48    23    24 ar  
    49    23    25 ar  
    50    24    28 ar  
    51    24    53 1   
    52    25    26 ar  
    53    25    54 1   
    54    26    27 ar  
    55    26    55 1   
    56    27    28 ar  
    57    27    56 1   
    58    28    57 1   
@<TRIPOS>SUBSTRUCTURE
     1 8X8         1 TEMP              0 ****  ****    0 ROOT
