@<TRIPOS>MOLECULE
8XB
   54    57     1     0     0
SMALL
abcg2


@<TRIPOS>ATOM
      1 C1           3.1290    -1.3100     0.0680 c          1 8XB       0.611600
      2 C2           2.0860    -0.3040     0.2570 cc         1 8XB      -0.242600
      3 C3           0.6920    -0.3790     0.0760 cc         1 8XB      -0.029000
      4 N6          -6.1300    -1.7490    -0.6410 na         1 8XB       0.088800
      5 C7           4.5920     0.2590     1.3210 c6         1 8XB       0.133700
      6 C8           4.3230    -0.0370     2.7920 c3         1 8XB      -0.116100
      7 C9           3.7830     1.4540     0.8150 c6         1 8XB      -0.024100
      8 C10          2.3930     0.9950     0.5980 cd         1 8XB      -0.112300
      9 C11          0.1830     0.8820     0.3200 cd         1 8XB      -0.283500
     10 C12         -1.2120     1.2880     0.2730 ca         1 8XB       0.271500
     11 C13         -1.6940     2.5980     0.4590 ca         1 8XB      -0.245300
     12 C14         -0.8620     3.8160     0.7230 c3         1 8XB      -0.031800
     13 C15         -3.3490     0.5450    -0.0390 ca         1 8XB       0.397900
     14 C16         -3.0710     2.7250     0.3720 ca         1 8XB       0.148900
     15 C19         -7.6800    -0.3210    -0.5690 cc         1 8XB       0.254900
     16 C20         -6.4940     0.4000    -0.3640 cc         1 8XB      -0.240000
     17 O1           2.9090    -2.3900    -0.4710 o          1 8XB      -0.570000
     18 N1           4.3620    -0.9370     0.4970 n          1 8XB      -0.413800
     19 C4           5.4850    -1.8330     0.2920 c3         1 8XB       0.106000
     20 C5           6.1660    -1.6170    -1.0440 c3         1 8XB       0.136600
     21 O2           6.6830    -0.3130    -1.0980 os         1 8XB      -0.462000
     22 C6           7.2700    -0.0140    -2.3380 c3         1 8XB       0.146900
     23 N2           1.2530     1.6980     0.6320 na         1 8XB      -0.079000
     24 N3          -2.0520     0.2840     0.0230 nb         1 8XB      -0.253000
     25 N4          -3.9140     1.7320     0.1300 nb         1 8XB      -0.214000
     26 N5          -4.1380    -0.5410    -0.3020 nu         1 8XB      -0.924900
     27 C17         -5.5080    -0.5700    -0.4200 cd         1 8XB       0.249000
     28 N7          -7.4600    -1.6070    -0.7360 nd         1 8XB      -0.526800
     29 H1           0.1130    -1.2470    -0.1930 ha         1 8XB       0.161000
     30 H2           5.6450     0.5120     1.2060 h1         1 8XB       0.072700
     31 H3           3.2750    -0.2830     2.9700 hc         1 8XB       0.044367
     32 H4           4.9280    -0.8780     3.1340 hc         1 8XB       0.044367
     33 H5           4.5790     0.8270     3.4070 hc         1 8XB       0.044367
     34 H6           3.8450     2.2720     1.5350 hc         1 8XB       0.065700
     35 H7           4.2050     1.8190    -0.1270 hc         1 8XB       0.065700
     36 H8          -0.3410     3.7690     1.6820 hc         1 8XB       0.041367
     37 H9          -0.1260     3.9970    -0.0630 hc         1 8XB       0.041367
     38 H10         -1.4980     4.7000     0.7620 hc         1 8XB       0.041367
     39 H11         -3.5190     3.7050     0.5080 h4         1 8XB       0.022100
     40 H12         -8.6880     0.0660    -0.5990 h4         1 8XB       0.035100
     41 H13         -6.3710     1.4540    -0.2040 ha         1 8XB       0.166000
     42 H14          6.1990    -1.6830     1.1040 h1         1 8XB       0.060700
     43 H15          5.1560    -2.8700     0.3520 h1         1 8XB       0.060700
     44 H16          6.9640    -2.3650    -1.1610 h1         1 8XB       0.034700
     45 H17          5.4450    -1.7880    -1.8560 h1         1 8XB       0.034700
     46 H18          7.6490     1.0070    -2.2950 h1         1 8XB       0.028033
     47 H19          8.1070    -0.6830    -2.5710 h1         1 8XB       0.028033
     48 H20          6.5500    -0.0810    -3.1620 h1         1 8XB       0.028033
     49 H21          1.2060     2.6780     0.8570 hn         1 8XB       0.351000
     50 H22         -3.6280    -1.4010    -0.4340 hn         1 8XB       0.517000
     51 H23         -4.8550    -3.0820    -1.6490 h1         1 8XB       0.056367
     52 H24         -4.9530    -3.3180     0.1100 h1         1 8XB       0.056367
     53 H25         -6.3090    -3.7750    -0.9250 h1         1 8XB       0.056367
     54 C18         -5.5170    -3.0470    -0.7830 c3         1 8XB       0.063900
@<TRIPOS>BOND
     1     1     2 1   
     2     1    17 2   
     3     1    18 1   
     4     2     3 1   
     5     2     8 2   
     6     3     9 2   
     7     3    29 1   
     8     4    27 1   
     9     4    28 1   
    10     4    54 1   
    11     5     6 1   
    12     5     7 1   
    13     5    18 1   
    14     5    30 1   
    15     6    31 1   
    16     6    32 1   
    17     6    33 1   
    18     7     8 1   
    19     7    34 1   
    20     7    35 1   
    21     8    23 1   
    22     9    10 1   
    23     9    23 1   
    24    10    11 ar  
    25    10    24 ar  
    26    11    12 1   
    27    11    14 ar  
    28    12    36 1   
    29    12    37 1   
    30    12    38 1   
    31    13    24 ar  
    32    13    25 ar  
    33    13    26 1   
    34    14    25 ar  
    35    14    39 1   
    36    15    16 1   
    37    15    28 2   
    38    15    40 1   
    39    16    27 2   
    40    16    41 1   
    41    18    19 1   
    42    19    20 1   
    43    19    42 1   
    44    19    43 1   
    45    20    21 1   
    46    20    44 1   
    47    20    45 1   
    48    21    22 1   
    49    22    46 1   
    50    22    47 1   
    51    22    48 1   
    52    23    49 1   
    53    26    27 1   
    54    26    50 1   
    55    51    54 1   
    56    52    54 1   
    57    53    54 1   
@<TRIPOS>SUBSTRUCTURE
     1 8XB         1 TEMP              0 ****  ****    0 ROOT
