@<TRIPOS>MOLECULE
8XB
   54    57     1     0     0
SMALL
No Charge or Current Charge


@<TRIPOS>ATOM
      1 C1           3.0680    -1.2050    -0.2970 c          1 8XB       0.611600
      2 C2           2.0720    -0.1500    -0.0080 cc         1 8XB      -0.242600
      3 C3           0.7110    -0.1410    -0.3640 cc         1 8XB      -0.029000
      4 N6          -6.3110    -1.8740    -0.2880 na         1 8XB       0.088800
      5 C7           4.5690     0.0560     1.3450 c6         1 8XB       0.133700
      6 C8           4.3110    -0.5040     2.7690 c3         1 8XB      -0.116100
      7 C9           3.7550     1.3550     1.0900 c6         1 8XB      -0.024100
      8 C10          2.3660     1.0040     0.6420 cd         1 8XB      -0.112300
      9 C11          0.1470     1.0400     0.0590 cd         1 8XB      -0.283500
     10 C12         -1.2810     1.4130    -0.0170 ca         1 8XB       0.271500
     11 C13         -1.7610     2.7430     0.0970 ca         1 8XB      -0.245300
     12 C14         -0.8580     3.9720     0.1720 c3         1 8XB      -0.031800
     13 C15         -3.4530     0.6600    -0.0830 ca         1 8XB       0.397900
     14 C16         -3.1580     2.9180     0.0950 ca         1 8XB       0.148900
     15 C19         -7.8520    -0.4320    -0.2190 cc         1 8XB       0.254900
     16 C20         -6.6500     0.2850    -0.1560 cc         1 8XB      -0.240000
     17 O1           2.8230    -2.1760    -1.0010 o          1 8XB      -0.570000
     18 N1           4.3330    -1.0030     0.3140 n          1 8XB      -0.413800
     19 C4           5.4470    -1.9440     0.0270 c3         1 8XB       0.106000
     20 C5           6.3400    -1.5150    -1.1600 c3         1 8XB       0.136600
     21 O2           7.0170    -0.2890    -0.8210 os         1 8XB      -0.462000
     22 C6           7.8660     0.2290    -1.8590 c3         1 8XB       0.146900
     23 N2           1.1780     1.7370     0.7220 na         1 8XB      -0.079000
     24 N3          -2.1430     0.3770    -0.0890 nb         1 8XB      -0.253000
     25 N4          -4.0070     1.8800     0.0050 nb         1 8XB      -0.214000
     26 N5          -4.2840    -0.4520    -0.1700 nu         1 8XB      -0.924900
     27 C17         -5.6530    -0.6320    -0.2000 cd         1 8XB       0.249000
     28 N7          -7.6990    -1.7400    -0.2990 nd         1 8XB      -0.526800
     29 H1           0.2060    -0.9510    -0.8870 ha         1 8XB       0.161000
     30 H2           5.6330     0.3350     1.3150 h1         1 8XB       0.072700
     31 H3           3.2630    -0.8010     2.8940 hc         1 8XB       0.044367
     32 H4           4.9330    -1.3840     2.9690 hc         1 8XB       0.044367
     33 H5           4.5420     0.2430     3.5370 hc         1 8XB       0.044367
     34 H6           3.7440     1.9920     1.9850 hc         1 8XB       0.065700
     35 H7           4.2520     1.9370     0.3030 hc         1 8XB       0.065700
     36 H8          -0.4360     4.0940     1.1760 hc         1 8XB       0.041367
     37 H9          -0.0330     3.9080    -0.5480 hc         1 8XB       0.041367
     38 H10         -1.4120     4.8890    -0.0610 hc         1 8XB       0.041367
     39 H11         -3.6080     3.9080     0.1650 h4         1 8XB       0.022100
     40 H12         -8.8550    -0.0250    -0.2070 h4         1 8XB       0.035100
     41 H13         -6.5720     1.3610    -0.0880 ha         1 8XB       0.166000
     42 H14          6.0780    -2.0410     0.9200 h1         1 8XB       0.060700
     43 H15          5.0420    -2.9430    -0.1790 h1         1 8XB       0.060700
     44 H16          7.0690    -2.3110    -1.3640 h1         1 8XB       0.034700
     45 H17          5.7160    -1.3840    -2.0540 h1         1 8XB       0.034700
     46 H18          8.3450     1.1600    -1.5290 h1         1 8XB       0.028033
     47 H19          8.6550    -0.4910    -2.1130 h1         1 8XB       0.028033
     48 H20          7.2860     0.4460    -2.7650 h1         1 8XB       0.028033
     49 H21          1.0820     2.6370     1.1820 hn         1 8XB       0.351000
     50 H22         -3.7540    -1.3220    -0.2220 hn         1 8XB       0.517000
     51 H23         -5.0490    -3.2580    -1.2550 h1         1 8XB       0.056367
     52 H24         -5.0720    -3.3690     0.5320 h1         1 8XB       0.056367
     53 H25         -6.4550    -3.9800    -0.4200 h1         1 8XB       0.056367
     54 C18         -5.6830    -3.2020    -0.3620 c3         1 8XB       0.063900
@<TRIPOS>BOND
     1     1     2 1   
     2     1    17 2   
     3     1    18 1   
     4     2     3 1   
     5     2     8 2   
     6     3     9 2   
     7     3    29 1   
     8     4    27 1   
     9     4    28 1   
    10     4    54 1   
    11     5     6 1   
    12     5     7 1   
    13     5    18 1   
    14     5    30 1   
    15     6    31 1   
    16     6    32 1   
    17     6    33 1   
    18     7     8 1   
    19     7    34 1   
    20     7    35 1   
    21     8    23 1   
    22     9    10 1   
    23     9    23 1   
    24    10    11 ar  
    25    10    24 ar  
    26    11    12 1   
    27    11    14 ar  
    28    12    36 1   
    29    12    37 1   
    30    12    38 1   
    31    13    24 ar  
    32    13    25 ar  
    33    13    26 1   
    34    14    25 ar  
    35    14    39 1   
    36    15    16 1   
    37    15    28 2   
    38    15    40 1   
    39    16    27 2   
    40    16    41 1   
    41    18    19 1   
    42    19    20 1   
    43    19    42 1   
    44    19    43 1   
    45    20    21 1   
    46    20    44 1   
    47    20    45 1   
    48    21    22 1   
    49    22    46 1   
    50    22    47 1   
    51    22    48 1   
    52    23    49 1   
    53    26    27 1   
    54    26    50 1   
    55    51    54 1   
    56    52    54 1   
    57    53    54 1   
@<TRIPOS>SUBSTRUCTURE
     1 8XB         1 TEMP              0 ****  ****    0 ROOT
