@<TRIPOS>MOLECULE
8XE
   48    51     1     0     0
SMALL
bcc


@<TRIPOS>ATOM
      1 C1           5.3290    -0.5700    -0.0190 cc         1 8XE       0.158300
      2 C2           6.3010     0.2680    -0.5370 cd         1 8XE      -0.320300
      3 C3           7.4930    -0.4470    -0.3420 cd         1 8XE       0.319200
      4 N6          -4.7120     0.0050     0.7120 n          1 8XE      -0.472800
      5 C7           1.0460     1.4010    -0.2430 ca         1 8XE       0.594800
      6 C8          -0.3610     1.1530    -0.0190 cc         1 8XE      -0.232800
      7 C9          -0.9910    -0.0130     0.3580 cd         1 8XE      -0.044000
      8 C10         -2.3700     0.2710     0.4220 cd         1 8XE      -0.237600
      9 C11         -2.5380     1.6020     0.0960 cc         1 8XE      -0.064600
     10 C12         -3.8590     2.2710     0.1280 c6         1 8XE      -0.026100
     11 C13         -4.9080     1.1930    -0.1160 c6         1 8XE       0.112000
     12 C14         -3.4870    -0.5710     0.8490 c          1 8XE       0.758100
     13 C16         -6.5970    -1.3310    -0.1880 c3         1 8XE       0.107400
     14 O           -3.3110    -1.6790     1.3430 o          1 8XE      -0.622500
     15 O1          -5.6960    -2.1360    -0.8970 os         1 8XE      -0.389600
     16 C17         -6.2450    -2.6500    -2.0820 c3         1 8XE       0.121700
     17 N5          -1.3320     2.1220    -0.1670 na         1 8XE      -0.129100
     18 C6           1.5410     2.6310    -0.6940 ca         1 8XE      -0.437600
     19 C5           2.9070     2.7180    -0.8580 ca         1 8XE       0.483200
     20 N3           3.7390     1.7130    -0.6130 nb         1 8XE      -0.746000
     21 N4           1.8700     0.3880     0.0040 nb         1 8XE      -0.773000
     22 C4           3.1690     0.5920    -0.1890 ca         1 8XE       0.926900
     23 N2           3.9600    -0.4840     0.0940 nu         1 8XE      -0.730300
     24 N1           7.2870    -1.6110     0.2370 nc         1 8XE      -0.525800
     25 N            5.9640    -1.6730     0.4340 na         1 8XE       0.068400
     26 C            5.3650    -2.8320     1.0520 c3         1 8XE       0.034600
     27 H1           6.1650     1.2360    -0.9790 ha         1 8XE       0.184000
     28 H2           8.4940    -0.1420    -0.6080 h4         1 8XE       0.035100
     29 H3          -0.5050    -0.9550     0.5540 ha         1 8XE       0.181000
     30 H4          -4.0140     2.7480     1.1010 hc         1 8XE       0.062700
     31 H5          -3.9530     3.0450    -0.6330 hc         1 8XE       0.062700
     32 H6          -4.9010     0.9200    -1.1770 h1         1 8XE       0.045700
     33 H7          -5.8960     1.5910     0.1090 h1         1 8XE       0.045700
     34 H8          -5.6450    -1.5400     1.7330 h1         1 8XE       0.067700
     35 H9          -6.6140    -0.0880     1.5400 h1         1 8XE       0.067700
     36 H10         -7.4730    -1.9030     0.1490 h1         1 8XE       0.020200
     37 H11         -6.9820    -0.5230    -0.8280 h1         1 8XE       0.020200
     38 H12         -7.0960    -3.3150    -1.8920 h1         1 8XE       0.028033
     39 H13         -6.5870    -1.8530    -2.7540 h1         1 8XE       0.028033
     40 H14         -5.4710    -3.2210    -2.5930 h1         1 8XE       0.028033
     41 H15         -1.1710     3.0850    -0.4200 hn         1 8XE       0.298700
     42 H16          0.9100     3.4790    -0.9140 ha         1 8XE       0.142000
     43 H17          3.3560     3.6410    -1.2060 h4         1 8XE       0.024100
     44 H18          3.4570    -1.3000     0.4110 hn         1 8XE       0.461800
     45 H19          4.7020    -3.3520     0.3610 h1         1 8XE       0.056700
     46 H20          6.1650    -3.5060     1.3400 h1         1 8XE       0.056700
     47 H21          4.8050    -2.5550     1.9450 h1         1 8XE       0.056700
     48 C15         -5.9060    -0.7490     1.0330 c3         1 8XE       0.098000
@<TRIPOS>BOND
     1     1     2 2   
     2     1    23 1   
     3     1    25 1   
     4     2     3 1   
     5     2    27 1   
     6     3    24 2   
     7     3    28 1   
     8     4    11 1   
     9     4    12 1   
    10     4    48 1   
    11     5     6 1   
    12     5    18 ar  
    13     5    21 ar  
    14     6     7 2   
    15     6    17 1   
    16     7     8 1   
    17     7    29 1   
    18     8     9 2   
    19     8    12 1   
    20     9    10 1   
    21     9    17 1   
    22    10    11 1   
    23    10    30 1   
    24    10    31 1   
    25    11    32 1   
    26    11    33 1   
    27    12    14 2   
    28    13    15 1   
    29    13    36 1   
    30    13    37 1   
    31    13    48 1   
    32    15    16 1   
    33    16    38 1   
    34    16    39 1   
    35    16    40 1   
    36    17    41 1   
    37    18    19 ar  
    38    18    42 1   
    39    19    20 ar  
    40    19    43 1   
    41    20    22 ar  
    42    21    22 ar  
    43    22    23 1   
    44    23    44 1   
    45    24    25 1   
    46    25    26 1   
    47    26    45 1   
    48    26    46 1   
    49    26    47 1   
    50    34    48 1   
    51    35    48 1   
@<TRIPOS>SUBSTRUCTURE
     1 8XE         1 TEMP              0 ****  ****    0 ROOT
