@<TRIPOS>MOLECULE
8XE
   48    51     1     0     0
SMALL
No Charge or Current Charge


@<TRIPOS>ATOM
      1 C1           5.3940    -0.6680    -0.0890 cc         1 8XE       0.246000
      2 C2           6.3620    -0.0390    -0.8050 cd         1 8XE      -0.237000
      3 C3           7.5830    -0.6790    -0.5170 cd         1 8XE       0.253900
      4 N6          -4.7190    -0.0820     0.6160 n          1 8XE      -0.405800
      5 C7           1.0980     1.5080    -0.2810 ca         1 8XE       0.266500
      6 C8          -0.3450     1.3320    -0.0930 cc         1 8XE      -0.283500
      7 C9          -0.9430     0.1310     0.2010 cd         1 8XE      -0.026000
      8 C10         -2.3310     0.3580     0.3340 cd         1 8XE      -0.237600
      9 C11         -2.5780     1.6890     0.1470 cc         1 8XE      -0.115300
     10 C12         -3.9330     2.3150     0.2970 c6         1 8XE      -0.026100
     11 C13         -5.0050     1.2440    -0.0050 c6         1 8XE       0.112000
     12 C14         -3.4050    -0.6140     0.6680 c          1 8XE       0.615600
     13 C16         -6.7200    -1.4260    -0.2180 c3         1 8XE       0.130600
     14 O           -3.1670    -1.7760     0.9740 o          1 8XE      -0.547000
     15 O1          -5.8820    -2.2270    -1.0700 os         1 8XE      -0.436000
     16 C17         -6.5380    -2.7400    -2.2410 c3         1 8XE       0.144900
     17 N5          -1.3530     2.3020    -0.1140 na         1 8XE      -0.078000
     18 C6           1.6290     2.7620    -0.6350 ca         1 8XE      -0.289000
     19 C5           3.0190     2.8670    -0.7920 ca         1 8XE       0.154900
     20 N3           3.8270     1.8070    -0.6110 nb         1 8XE      -0.220000
     21 N4           1.9120     0.4470    -0.0980 nb         1 8XE      -0.247000
     22 C4           3.2280     0.6490    -0.2760 ca         1 8XE       0.400900
     23 N2           4.0250    -0.4690    -0.0680 nu         1 8XE      -0.923900
     24 N1           7.4480    -1.6890     0.3240 nc         1 8XE      -0.525800
     25 N            6.0850    -1.6880     0.5770 na         1 8XE       0.089800
     26 C            5.5070    -2.6930     1.4840 c3         1 8XE       0.063900
     27 H1           6.2250     0.7940    -1.4830 ha         1 8XE       0.166000
     28 H2           8.5650    -0.4420    -0.9060 h4         1 8XE       0.035100
     29 H3          -0.4460    -0.8300     0.3130 ha         1 8XE       0.163000
     30 H4          -4.0660     2.6850     1.3220 hc         1 8XE       0.062700
     31 H5          -4.0620     3.1760    -0.3720 hc         1 8XE       0.062700
     32 H6          -5.0620     1.1000    -1.0940 h1         1 8XE       0.045700
     33 H7          -5.9880     1.6110     0.3250 h1         1 8XE       0.045700
     34 H8          -5.5570    -1.7940     1.5710 h1         1 8XE       0.067700
     35 H9          -6.5420    -0.3380     1.6390 h1         1 8XE       0.067700
     36 H10         -7.5680    -2.0170     0.1530 h1         1 8XE       0.020200
     37 H11         -7.1200    -0.5640    -0.7690 h1         1 8XE       0.020200
     38 H12         -7.3870    -3.3790    -1.9640 h1         1 8XE       0.028033
     39 H13         -6.9100    -1.9200    -2.8700 h1         1 8XE       0.028033
     40 H14         -5.8390    -3.3390    -2.8380 h1         1 8XE       0.028033
     41 H15         -1.2180     3.2950    -0.2780 hn         1 8XE       0.349000
     42 H16          0.9930     3.6280    -0.7860 ha         1 8XE       0.124000
     43 H17          3.4920     3.8090    -1.0650 h4         1 8XE       0.024100
     44 H18          3.4970    -1.2590     0.3050 hn         1 8XE       0.517000
     45 H19          4.8690    -3.3780     0.9130 h1         1 8XE       0.056700
     46 H20          6.3060    -3.2660     1.9700 h1         1 8XE       0.056700
     47 H21          4.9080    -2.1910     2.2530 h1         1 8XE       0.056700
     48 C15         -5.8850    -0.9260     0.9850 c3         1 8XE       0.098000
@<TRIPOS>BOND
     1     1     2 2   
     2     1    23 1   
     3     1    25 1   
     4     2     3 1   
     5     2    27 1   
     6     3    24 2   
     7     3    28 1   
     8     4    11 1   
     9     4    12 1   
    10     4    48 1   
    11     5     6 1   
    12     5    18 ar  
    13     5    21 ar  
    14     6     7 2   
    15     6    17 1   
    16     7     8 1   
    17     7    29 1   
    18     8     9 2   
    19     8    12 1   
    20     9    10 1   
    21     9    17 1   
    22    10    11 1   
    23    10    30 1   
    24    10    31 1   
    25    11    32 1   
    26    11    33 1   
    27    12    14 2   
    28    13    15 1   
    29    13    36 1   
    30    13    37 1   
    31    13    48 1   
    32    15    16 1   
    33    16    38 1   
    34    16    39 1   
    35    16    40 1   
    36    17    41 1   
    37    18    19 ar  
    38    18    42 1   
    39    19    20 ar  
    40    19    43 1   
    41    20    22 ar  
    42    21    22 ar  
    43    22    23 1   
    44    23    44 1   
    45    24    25 1   
    46    25    26 1   
    47    26    45 1   
    48    26    46 1   
    49    26    47 1   
    50    34    48 1   
    51    35    48 1   
@<TRIPOS>SUBSTRUCTURE
     1 8XE         1 TEMP              0 ****  ****    0 ROOT
