@<TRIPOS>MOLECULE
8XF
   15    15     1     0     0
SMALL
No Charge or Current Charge


@<TRIPOS>ATOM
      1 N1          23.8530    33.3940     8.1250 nb         1 8XF      -0.255000
      2 N2          23.7960    35.7820     7.7880 nb         1 8XF      -0.185000
      3 C4          24.2090    34.5310     7.4910 ca         1 8XF       0.171900
      4 C3          23.0040    33.5350     9.1510 ca         1 8XF       0.392900
      5 C2          22.5110    34.7800     9.5490 ca         1 8XF      -0.254000
      6 C1          22.9350    35.9150     8.8250 ca         1 8XF       0.046300
      7 N           22.6500    32.3920     9.7910 nv         1 8XF      -1.076900
      8 C           22.4540    37.3250     9.1930 c3         1 8XF       0.262700
      9 F           22.7630    38.2540     8.2570 f          1 8XF      -0.104333
     10 F1          23.0000    37.7450    10.3570 f          1 8XF      -0.104333
     11 F2          21.1110    37.3680     9.3520 f          1 8XF      -0.104333
     12 H3          24.8990    34.4300     6.6550 h5         1 8XF       0.055100
     13 H           21.8250    34.8720    10.3860 ha         1 8XF       0.145000
     14 H2          23.1870    31.5470     9.6010 hn         1 8XF       0.504500
     15 H1          22.2090    32.4510    10.7070 hn         1 8XF       0.504500
@<TRIPOS>BOND
     1     1     3 ar  
     2     1     4 ar  
     3     2     3 ar  
     4     2     6 ar  
     5     3    12 1   
     6     4     5 ar  
     7     4     7 1   
     8     5     6 ar  
     9     5    13 1   
    10     6     8 1   
    11     7    14 1   
    12     7    15 1   
    13     8     9 1   
    14     8    10 1   
    15     8    11 1   
@<TRIPOS>SUBSTRUCTURE
     1 8XF         1 TEMP              0 ****  ****    0 ROOT
