@<TRIPOS>MOLECULE
8XF
   15    15     1     0     0
SMALL
bcc


@<TRIPOS>ATOM
      1 N1          23.9180    33.4650     8.1780 nb         1 8XF      -0.781000
      2 N2          23.8170    35.8070     7.8350 nb         1 8XF      -0.711000
      3 C4          24.2540    34.5880     7.5710 ca         1 8XF       0.697900
      4 C3          23.0300    33.5500     9.1750 ca         1 8XF       0.721200
      5 C2          22.4800    34.8000     9.5360 ca         1 8XF      -0.402600
      6 C1          22.9250    35.8790     8.8240 ca         1 8XF       0.374600
      7 N           22.6840    32.4280     9.8060 nv         1 8XF      -0.966500
      8 C           22.4620    37.2700     9.1780 c3         1 8XF       0.626600
      9 F           22.4380    38.0740     8.1180 f          1 8XF      -0.225633
     10 F1          23.2880    37.8190    10.0780 f          1 8XF      -0.225633
     11 F2          21.2380    37.2720     9.7110 f          1 8XF      -0.225633
     12 H3          24.9730    34.4980     6.7630 h5         1 8XF       0.055100
     13 H           21.7570    34.8810    10.3350 ha         1 8XF       0.163000
     14 H2          23.1020    31.5510     9.5460 hn         1 8XF       0.449300
     15 H1          22.0380    32.4370    10.5760 hn         1 8XF       0.449300
@<TRIPOS>BOND
     1     1     3 ar  
     2     1     4 ar  
     3     2     3 ar  
     4     2     6 ar  
     5     3    12 1   
     6     4     5 ar  
     7     4     7 1   
     8     5     6 ar  
     9     5    13 1   
    10     6     8 1   
    11     7    14 1   
    12     7    15 1   
    13     8     9 1   
    14     8    10 1   
    15     8    11 1   
@<TRIPOS>SUBSTRUCTURE
     1 8XF         1 TEMP              0 ****  ****    0 ROOT
