@<TRIPOS>MOLECULE
8XG
   36    38     1     0     0
SMALL
No Charge or Current Charge


@<TRIPOS>ATOM
      1 P           77.5520   102.1960   -16.1730 p5         1 8XG       1.291900
      2 OP1         76.1700   102.7420   -16.2200 o          1 8XG      -0.897833
      3 OP2         77.5160   100.7720   -15.7450 o          1 8XG      -0.897833
      4 O5          78.1890   102.2790   -17.6460 os         1 8XG      -0.595400
      5 C5          79.4860   101.7100   -17.8950 c3         1 8XG       0.238600
      6 C4          79.3530   100.4590   -18.8130 c5         1 8XG       0.106300
      7 O4          80.6270    99.7850   -18.9370 os         1 8XG      -0.474000
      8 C1          80.3790    98.4590   -19.4750 c5         1 8XG       0.322300
      9 N9          81.2660    97.4990   -18.8150 na         1 8XG      -0.167500
     10 C9          82.4380    96.9950   -19.3190 cc         1 8XG       0.104400
     11 N3          83.0610    97.3070   -20.5120 nc         1 8XG      -0.667100
     12 C2          84.1800    96.6460   -20.6980 cd         1 8XG       0.683800
     13 N2          84.8250    96.9110   -21.8220 nv         1 8XG      -1.054200
     14 N1          84.7410    95.7390   -19.8710 ns         1 8XG      -0.460400
     15 C6          84.1900    95.3670   -18.6790 c          1 8XG       0.518500
     16 O6          84.7180    94.5340   -17.9530 o          1 8XG      -0.562000
     17 C7          82.9080    96.0850   -18.4010 cd         1 8XG       0.102500
     18 N7          82.0290    96.0010   -17.3270 nd         1 8XG      -0.644000
     19 C8          81.0470    96.8600   -17.6090 cc         1 8XG       0.488400
     20 C10         78.8190    98.2070   -19.3810 c5         1 8XG       0.102300
     21 O2          78.1720    98.3830   -20.6620 oh         1 8XG      -0.741000
     22 C3          78.3860    99.3160   -18.3580 c5         1 8XG       0.167300
     23 O3          78.5750    98.9170   -16.9910 oh         1 8XG      -0.839000
     24 O1          78.3780   102.9970   -15.2320 o          1 8XG      -0.897833
     25 H5          79.9800   101.4170   -16.9590 h1         1 8XG       0.016700
     26 H5'         80.1300   102.4470   -18.3930 h1         1 8XG       0.016700
     27 H4          79.0620   100.8170   -19.8110 h1         1 8XG       0.043700
     28 H1          80.6700    98.4420   -20.5320 h2         1 8XG       0.076700
     29 H21         84.4850    97.7310   -22.3100 hn         1 8XG       0.482500
     30 H22         85.8300    96.7820   -21.8290 hn         1 8XG       0.482500
     31 H6          85.6000    95.2820   -20.1330 hn         1 8XG       0.302500
     32 H8          80.1760    97.0470   -16.9950 h5         1 8XG       0.108100
     33 H2          78.6030    97.2020   -18.9910 h1         1 8XG       0.062700
     34 HO2         77.2320    98.1010   -20.5590 ho         1 8XG       0.502000
     35 H3          77.3370    99.6080   -18.5140 h1         1 8XG       0.046700
     36 H7          78.1340    99.6730   -16.4360 ho         1 8XG       0.629000
@<TRIPOS>BOND
     1     1     2 1   
     2     1     3 1   
     3     1     4 1   
     4     1    24 1   
     5     4     5 1   
     6     5     6 1   
     7     5    25 1   
     8     5    26 1   
     9     6     7 1   
    10     6    22 1   
    11     6    27 1   
    12     7     8 1   
    13     8     9 1   
    14     8    20 1   
    15     8    28 1   
    16     9    10 1   
    17     9    19 1   
    18    10    11 1   
    19    10    17 2   
    20    11    12 2   
    21    12    13 1   
    22    12    14 1   
    23    13    29 1   
    24    13    30 1   
    25    14    15 1   
    26    14    31 1   
    27    15    16 2   
    28    15    17 1   
    29    17    18 1   
    30    18    19 2   
    31    19    32 1   
    32    20    21 1   
    33    20    22 1   
    34    20    33 1   
    35    21    34 1   
    36    22    23 1   
    37    22    35 1   
    38    23    36 1   
@<TRIPOS>SUBSTRUCTURE
     1 8XG         1 TEMP              0 ****  ****    0 ROOT
