@<TRIPOS>MOLECULE
8XG
   36    38     1     0     0
SMALL
abcg2


@<TRIPOS>ATOM
      1 P           77.0520   101.2230   -15.8200 p5         1 8XG       1.291900
      2 OP1         75.6150   101.6460   -16.0460 o          1 8XG      -0.897833
      3 OP2         77.2590    99.6960   -15.8360 o          1 8XG      -0.897833
      4 O5          77.8090   101.7670   -17.2160 os         1 8XG      -0.595400
      5 C5          79.1840   101.4660   -17.3960 c3         1 8XG       0.238600
      6 C4          79.3530   100.7460   -18.7190 c5         1 8XG       0.106300
      7 O4          80.7630   100.4770   -18.9250 os         1 8XG      -0.474000
      8 C1          80.9340    99.2540   -19.6000 c5         1 8XG       0.322300
      9 N9          81.7460    98.3600   -18.7770 na         1 8XG      -0.167500
     10 C9          82.5510    97.3610   -19.2550 cc         1 8XG       0.104400
     11 N3          82.7600    97.0560   -20.5510 nc         1 8XG      -0.667100
     12 C2          83.5810    96.0410   -20.7230 cd         1 8XG       0.683800
     13 N2          83.8500    95.5920   -21.9690 nv         1 8XG      -1.054200
     14 N1          84.1610    95.3700   -19.6790 ns         1 8XG      -0.460400
     15 C6          83.9820    95.6520   -18.3080 c          1 8XG       0.518500
     16 O6          84.5610    94.9710   -17.4630 o          1 8XG      -0.562000
     17 C7          83.0950    96.7510   -18.1290 cd         1 8XG       0.102500
     18 N7          82.6330    97.3670   -16.9780 nd         1 8XG      -0.644000
     19 C8          81.8310    98.3120   -17.4000 cc         1 8XG       0.488400
     20 C10         79.5300    98.7040   -19.8990 c5         1 8XG       0.102300
     21 O2          79.2070    99.1420   -21.2150 oh         1 8XG      -0.741000
     22 C3          78.6610    99.3800   -18.8330 c5         1 8XG       0.167300
     23 O3          78.7190    98.6110   -17.6590 oh         1 8XG      -0.839000
     24 O1          77.7640   101.9010   -14.6610 o          1 8XG      -0.897833
     25 H5          79.5690   100.8420   -16.5880 h1         1 8XG       0.016700
     26 H5'         79.7670   102.3930   -17.4100 h1         1 8XG       0.016700
     27 H4          79.0010   101.3880   -19.5320 h1         1 8XG       0.043700
     28 H1          81.4820    99.3990   -20.5320 h2         1 8XG       0.076700
     29 H21         83.5680    96.1870   -22.7320 hn         1 8XG       0.482500
     30 H22         84.6560    95.0080   -22.1290 hn         1 8XG       0.482500
     31 H6          84.7670    94.5840   -19.8790 hn         1 8XG       0.302500
     32 H8          81.2780    98.9970   -16.7840 h5         1 8XG       0.108100
     33 H2          79.4940    97.6170   -19.8180 h1         1 8XG       0.062700
     34 HO2         78.2870    98.9090   -21.3950 ho         1 8XG       0.502000
     35 H3          77.6330    99.5000   -19.1920 h1         1 8XG       0.046700
     36 H7          78.1400    99.0470   -16.9480 ho         1 8XG       0.629000
@<TRIPOS>BOND
     1     1     2 1   
     2     1     3 1   
     3     1     4 1   
     4     1    24 1   
     5     4     5 1   
     6     5     6 1   
     7     5    25 1   
     8     5    26 1   
     9     6     7 1   
    10     6    22 1   
    11     6    27 1   
    12     7     8 1   
    13     8     9 1   
    14     8    20 1   
    15     8    28 1   
    16     9    10 1   
    17     9    19 1   
    18    10    11 1   
    19    10    17 2   
    20    11    12 2   
    21    12    13 1   
    22    12    14 1   
    23    13    29 1   
    24    13    30 1   
    25    14    15 1   
    26    14    31 1   
    27    15    16 2   
    28    15    17 1   
    29    17    18 1   
    30    18    19 2   
    31    19    32 1   
    32    20    21 1   
    33    20    22 1   
    34    20    33 1   
    35    21    34 1   
    36    22    23 1   
    37    22    35 1   
    38    23    36 1   
@<TRIPOS>SUBSTRUCTURE
     1 8XG         1 TEMP              0 ****  ****    0 ROOT
