@<TRIPOS>MOLECULE
8XH
   52    55     1     0     0
SMALL
No Charge or Current Charge


@<TRIPOS>ATOM
      1 C1           6.6560    -1.7130    -0.5080 c3         1 8XH       0.136600
      2 C2           5.9270    -1.5060     0.8400 c3         1 8XH       0.107000
      3 C3           5.0540     0.8670     1.1340 c6         1 8XH       0.123000
      4 C7           1.0580    -0.1460     0.2960 cc         1 8XH      -0.031000
      5 C8           0.4730     1.0920     0.1780 cd         1 8XH      -0.278500
      6 C9          -0.9570     1.3970     0.0080 ca         1 8XH       0.265500
      7 C10         -1.4270     2.7210    -0.0560 ca         1 8XH      -0.305000
      8 C11         -2.8040     2.9180    -0.2360 ca         1 8XH       0.156900
      9 C12         -3.1060     0.6500    -0.2740 ca         1 8XH       0.394900
     10 C13         -5.4160    -0.4220    -0.4470 c6         1 8XH       0.247500
     11 C14         -6.0000    -0.2100     0.9710 c6         1 8XH      -0.132900
     12 C15         -7.5400    -0.3280     0.9340 c6         1 8XH       0.157100
     13 C16         -7.4730    -1.7990    -0.9890 c6         1 8XH       0.157100
     14 C18          3.4730    -1.0390     0.5520 c          1 8XH       0.609600
     15 N            4.7880    -0.5560     0.7670 n          1 8XH      -0.413800
     16 O            7.2730    -0.4720    -0.9040 os         1 8XH      -0.461000
     17 C            7.9680    -0.5270    -2.1610 c3         1 8XH       0.146900
     18 C6           2.4490     0.0230     0.4240 cc         1 8XH      -0.242600
     19 N1           1.5270     2.0270     0.2140 na         1 8XH      -0.079000
     20 C5           2.7420     1.3500     0.3680 cd         1 8XH      -0.116300
     21 C4           4.1480     1.8790     0.3930 c6         1 8XH      -0.029100
     22 N3          -1.8070     0.3570    -0.1080 nb         1 8XH      -0.253000
     23 N2          -3.6520     1.8800    -0.3470 nb         1 8XH      -0.251000
     24 N4          -3.9460    -0.4510    -0.3920 nu         1 8XH      -0.916100
     25 C17         -5.9290    -1.7540    -1.0420 c6         1 8XH      -0.132900
     26 O1          -7.9200    -1.6020     0.3700 os         1 8XH      -0.449000
     27 H1           7.4150    -2.4970    -0.3860 h1         1 8XH       0.034700
     28 H2           5.9330    -2.0490    -1.2620 h1         1 8XH       0.034700
     29 H3           5.5740    -2.4790     1.2020 h1         1 8XH       0.060700
     30 H4           6.6520    -1.1410     1.5790 h1         1 8XH       0.060700
     31 H5           4.8860     0.9730     2.2150 h1         1 8XH       0.050200
     32 H6           6.1070     1.1170     0.9450 h1         1 8XH       0.050200
     33 H7           0.5500    -1.1080     0.2930 ha         1 8XH       0.163000
     34 H8          -0.7580     3.5710     0.0310 ha         1 8XH       0.121000
     35 H9          -3.2350     3.9170    -0.2930 h4         1 8XH       0.017100
     36 H10         -5.7620     0.3930    -1.1030 h1         1 8XH       0.078700
     37 H12         -5.7150     0.7760     1.3600 hc         1 8XH       0.057950
     38 H13         -7.9480    -0.2520     1.9530 h1         1 8XH       0.046700
     39 H14         -7.9740     0.4820     0.3300 h1         1 8XH       0.046700
     40 H15         -7.9040    -1.0170    -1.6320 h1         1 8XH       0.046700
     41 H16         -7.8340    -2.7740    -1.3470 h1         1 8XH       0.046700
     42 H17          8.7760    -1.2700    -2.1270 h1         1 8XH       0.027700
     43 H18          7.2820    -0.7960    -2.9740 h1         1 8XH       0.027700
     44 H19          8.4100     0.4490    -2.3950 h1         1 8XH       0.027700
     45 H20          1.4280     3.0340     0.1270 hn         1 8XH       0.348000
     46 H21          4.2040     2.8620     0.8790 hc         1 8XH       0.064700
     47 H22          4.5150     2.0090    -0.6340 hc         1 8XH       0.064700
     48 H23         -3.4810    -1.3560    -0.3260 hn         1 8XH       0.503000
     49 H24         -5.5900    -1.8600    -2.0820 hc         1 8XH       0.057950
     50 H25         -5.5230    -2.6070    -0.4830 hc         1 8XH       0.057950
     51 O2           3.2120    -2.2330     0.4700 o          1 8XH      -0.569000
     52 H11         -5.5940    -0.9560     1.6670 hc         1 8XH       0.057950
@<TRIPOS>BOND
     1     1     2 1   
     2     1    16 1   
     3     1    27 1   
     4     1    28 1   
     5     2    15 1   
     6     2    29 1   
     7     2    30 1   
     8     3    15 1   
     9     3    21 1   
    10     3    31 1   
    11     3    32 1   
    12     4     5 2   
    13     4    18 1   
    14     4    33 1   
    15     5     6 1   
    16     5    19 1   
    17     6     7 ar  
    18     6    22 ar  
    19     7     8 ar  
    20     7    34 1   
    21     8    23 ar  
    22     8    35 1   
    23     9    22 ar  
    24     9    23 ar  
    25     9    24 1   
    26    10    11 1   
    27    10    24 1   
    28    10    25 1   
    29    10    36 1   
    30    11    12 1   
    31    11    37 1   
    32    11    52 1   
    33    12    26 1   
    34    12    38 1   
    35    12    39 1   
    36    13    25 1   
    37    13    26 1   
    38    13    40 1   
    39    13    41 1   
    40    14    15 1   
    41    14    18 1   
    42    14    51 2   
    43    16    17 1   
    44    17    42 1   
    45    17    43 1   
    46    17    44 1   
    47    18    20 2   
    48    19    20 1   
    49    19    45 1   
    50    20    21 1   
    51    21    46 1   
    52    21    47 1   
    53    24    48 1   
    54    25    49 1   
    55    25    50 1   
@<TRIPOS>SUBSTRUCTURE
     1 8XH         1 TEMP              0 ****  ****    0 ROOT
