@<TRIPOS>MOLECULE
8XH
   52    55     1     0     0
SMALL
bcc


@<TRIPOS>ATOM
      1 C1           6.6480    -1.5750    -0.4370 c3         1 8XH       0.113400
      2 C2           5.9460    -1.4020     0.8950 c3         1 8XH       0.107000
      3 C3           4.9190     0.8470     1.2150 c6         1 8XH       0.123000
      4 C7           1.0830    -0.3450     0.2670 cc         1 8XH      -0.049000
      5 C8           0.5100     0.8980     0.1140 cd         1 8XH      -0.227800
      6 C9          -0.8860     1.2520    -0.0570 ca         1 8XH       0.593800
      7 C10         -1.3230     2.5780    -0.1450 ca         1 8XH      -0.453600
      8 C11         -2.6820     2.7590    -0.3070 ca         1 8XH       0.485200
      9 C12         -3.0360     0.5320    -0.2900 ca         1 8XH       0.920900
     10 C13         -5.3170    -0.4180    -0.4090 c6         1 8XH       0.247500
     11 C14         -5.9170    -0.1940     0.9790 c6         1 8XH      -0.132900
     12 C15         -7.4360    -0.2230     0.9090 c6         1 8XH       0.133900
     13 C16         -7.4340    -1.6140    -0.9700 c6         1 8XH       0.133900
     14 C18          3.5670    -1.0990     0.5290 c          1 8XH       0.752100
     15 N            4.7770    -0.5480     0.8040 n          1 8XH      -0.480800
     16 O            7.0830    -0.3220    -0.8980 os         1 8XH      -0.414600
     17 C            7.6510    -0.3820    -2.1800 c3         1 8XH       0.123700
     18 C6           2.4700    -0.1380     0.4190 cc         1 8XH      -0.242600
     19 N1           1.5230     1.8320     0.1580 na         1 8XH      -0.130100
     20 C5           2.7010     1.2190     0.3400 cd         1 8XH      -0.065600
     21 C4           4.0620     1.8020     0.3960 c6         1 8XH      -0.029100
     22 N3          -1.7420     0.2400    -0.1280 nb         1 8XH      -0.779000
     23 N2          -3.5530     1.7640    -0.3800 nb         1 8XH      -0.777000
     24 N4          -3.8750    -0.5180    -0.3880 nu         1 8XH      -0.860900
     25 C17         -5.9150    -1.6790    -1.0210 c6         1 8XH      -0.132900
     26 O1          -7.9150    -1.4230     0.3420 os         1 8XH      -0.402600
     27 H1           7.4920    -2.2670    -0.3060 h1         1 8XH       0.034700
     28 H2           5.9620    -2.0410    -1.1580 h1         1 8XH       0.034700
     29 H3           5.6660    -2.3850     1.2720 h1         1 8XH       0.060700
     30 H4           6.6330    -0.9680     1.6240 h1         1 8XH       0.060700
     31 H5           4.6570     0.9480     2.2730 h1         1 8XH       0.050200
     32 H6           5.9650     1.1240     1.1130 h1         1 8XH       0.050200
     33 H7           0.5520    -1.2830     0.2770 ha         1 8XH       0.181000
     34 H8          -0.6610     3.4290    -0.0830 ha         1 8XH       0.139000
     35 H9          -3.0910     3.7610    -0.3800 h4         1 8XH       0.017100
     36 H10         -5.5840     0.4310    -1.0440 h1         1 8XH       0.078700
     37 H12         -5.5920     0.7670     1.3850 hc         1 8XH       0.057950
     38 H13         -7.8680    -0.1460     1.9090 h1         1 8XH       0.046700
     39 H14         -7.7930     0.6420     0.3310 h1         1 8XH       0.046700
     40 H15         -7.7850    -0.8040    -1.6270 h1         1 8XH       0.046700
     41 H16         -7.8690    -2.5440    -1.3390 h1         1 8XH       0.046700
     42 H17          8.5370    -1.0280    -2.2100 h1         1 8XH       0.027700
     43 H18          6.9400    -0.7560    -2.9260 h1         1 8XH       0.027700
     44 H19          7.9500     0.6260    -2.4640 h1         1 8XH       0.027700
     45 H20          1.4100     2.8290     0.0630 hn         1 8XH       0.297700
     46 H21          4.0730     2.7870     0.8630 hc         1 8XH       0.064700
     47 H22          4.4680     1.9160    -0.6150 hc         1 8XH       0.064700
     48 H23         -3.4690    -1.4220    -0.2010 hn         1 8XH       0.447800
     49 H24         -5.5960    -1.7920    -2.0600 hc         1 8XH       0.057950
     50 H25         -5.5660    -2.5630    -0.4750 hc         1 8XH       0.057950
     51 O2           3.4050    -2.3030     0.3520 o          1 8XH      -0.644500
     52 H11         -5.5600    -0.9740     1.6580 hc         1 8XH       0.057950
@<TRIPOS>BOND
     1     1     2 1   
     2     1    16 1   
     3     1    27 1   
     4     1    28 1   
     5     2    15 1   
     6     2    29 1   
     7     2    30 1   
     8     3    15 1   
     9     3    21 1   
    10     3    31 1   
    11     3    32 1   
    12     4     5 2   
    13     4    18 1   
    14     4    33 1   
    15     5     6 1   
    16     5    19 1   
    17     6     7 ar  
    18     6    22 ar  
    19     7     8 ar  
    20     7    34 1   
    21     8    23 ar  
    22     8    35 1   
    23     9    22 ar  
    24     9    23 ar  
    25     9    24 1   
    26    10    11 1   
    27    10    24 1   
    28    10    25 1   
    29    10    36 1   
    30    11    12 1   
    31    11    37 1   
    32    11    52 1   
    33    12    26 1   
    34    12    38 1   
    35    12    39 1   
    36    13    25 1   
    37    13    26 1   
    38    13    40 1   
    39    13    41 1   
    40    14    15 1   
    41    14    18 1   
    42    14    51 2   
    43    16    17 1   
    44    17    42 1   
    45    17    43 1   
    46    17    44 1   
    47    18    20 2   
    48    19    20 1   
    49    19    45 1   
    50    20    21 1   
    51    21    46 1   
    52    21    47 1   
    53    24    48 1   
    54    25    49 1   
    55    25    50 1   
@<TRIPOS>SUBSTRUCTURE
     1 8XH         1 TEMP              0 ****  ****    0 ROOT
