@<TRIPOS>MOLECULE
8XI
   37    39     1     0     0
SMALL
No Charge or Current Charge


@<TRIPOS>ATOM
      1 C1          56.7230    38.5770    66.0750 c          1 8XI       0.575000
      2 O1          57.1320    39.6450    66.5100 o          1 8XI      -0.462000
      3 N1          55.4800    38.1230    65.6270 nj         1 8XI      -0.284000
      4 C2          54.2720    38.6560    65.0290 ce         1 8XI       0.022400
      5 C3          53.1970    37.8200    65.1910 c2         1 8XI      -0.059200
      6 Cl1         51.5630    38.1790    64.6740 cl         1 8XI      -0.206000
      7 O4          53.2150    40.5660    64.0490 o          1 8XI      -0.676500
      8 C15         54.2640    40.0640    64.4310 c          1 8XI       0.734200
      9 O3          55.3330    40.6480    64.3140 o          1 8XI      -0.676500
     10 C4          53.2740    36.4010    65.7650 c6         1 8XI       0.142800
     11 S1          54.8780    35.7780    66.4520 ss         1 8XI      -0.494000
     12 C5          55.9180    36.7690    65.2860 cy         1 8XI       0.192700
     13 C6          57.3650    37.1840    65.7470 cy         1 8XI       0.009700
     14 N2          58.0420    36.4340    66.7960 ns         1 8XI      -0.471900
     15 C7          58.6190    35.1940    66.6020 c          1 8XI       0.617100
     16 O2          58.6410    34.6620    65.4950 o          1 8XI      -0.598100
     17 C8          59.2260    34.5320    67.8990 c3         1 8XI       0.133800
     18 N3          60.2140    33.4220    67.6940 n8         1 8XI      -0.985200
     19 C9          58.1200    34.0450    68.8340 ca         1 8XI      -0.132300
     20 C14         58.1110    34.4420    70.1870 ca         1 8XI      -0.091500
     21 C13         57.0920    34.0030    71.0500 ca         1 8XI      -0.106500
     22 C12         56.0730    33.1640    70.5680 ca         1 8XI      -0.104000
     23 C11         56.0760    32.7630    69.2220 ca         1 8XI      -0.106500
     24 C10         57.0950    33.1990    68.3580 ca         1 8XI      -0.091500
     25 H4          52.5180    36.2880    66.5550 h1         1 8XI       0.065700
     26 H5          52.9920    35.7020    64.9640 h1         1 8XI       0.065700
     27 H6          55.7730    36.4620    64.2440 h2         1 8XI       0.098700
     28 H7          58.0520    37.2780    64.9000 h1         1 8XI       0.111700
     29 H8          58.0450    36.7830    67.7480 hn         1 8XI       0.329500
     30 H9          59.7650    35.3440    68.4090 h1         1 8XI       0.074700
     31 H10         60.4530    33.0220    68.6090 hn         1 8XI       0.407000
     32 H11         59.7390    32.6490    67.2140 hn         1 8XI       0.407000
     33 H13         58.8940    35.0910    70.5740 ha         1 8XI       0.113500
     34 H14         57.0910    34.3140    72.0920 ha         1 8XI       0.111000
     35 H15         55.2840    32.8260    71.2360 ha         1 8XI       0.108000
     36 H16         55.2870    32.1140    68.8470 ha         1 8XI       0.111000
     37 H17         57.0820    32.8820    67.3180 ha         1 8XI       0.113500
@<TRIPOS>BOND
     1     1     2 2   
     2     1     3 1   
     3     1    13 1   
     4     3     4 1   
     5     3    12 1   
     6     4     5 2   
     7     4     8 1   
     8     5     6 1   
     9     5    10 1   
    10     7     8 1   
    11     8     9 1   
    12    10    11 1   
    13    10    25 1   
    14    10    26 1   
    15    11    12 1   
    16    12    13 1   
    17    12    27 1   
    18    13    14 1   
    19    13    28 1   
    20    14    15 1   
    21    14    29 1   
    22    15    16 2   
    23    15    17 1   
    24    17    18 1   
    25    17    19 1   
    26    17    30 1   
    27    18    31 1   
    28    18    32 1   
    29    19    20 ar  
    30    19    24 ar  
    31    20    21 ar  
    32    20    33 1   
    33    21    22 ar  
    34    21    34 1   
    35    22    23 ar  
    36    22    35 1   
    37    23    24 ar  
    38    23    36 1   
    39    24    37 1   
@<TRIPOS>SUBSTRUCTURE
     1 8XI         1 TEMP              0 ****  ****    0 ROOT
