@<TRIPOS>MOLECULE
8XI
   37    39     1     0     0
SMALL
abcg2


@<TRIPOS>ATOM
      1 C1          56.9310    38.2420    65.3830 c          1 8XI       0.575000
      2 O1          57.5270    39.2730    65.5290 o          1 8XI      -0.462000
      3 N1          55.6210    37.9480    65.1220 nj         1 8XI      -0.284000
      4 C2          54.4480    38.6930    65.1970 ce         1 8XI       0.022400
      5 C3          53.3830    38.1020    65.7460 c2         1 8XI      -0.059200
      6 CL1         51.8310    38.8850    65.7160 cl         1 8XI      -0.206000
      7 O4          54.0270    41.0220    65.2050 o          1 8XI      -0.676500
      8 C15         54.4980    40.0860    64.5500 c          1 8XI       0.734200
      9 O3          55.0160    40.0910    63.4230 o          1 8XI      -0.676500
     10 C4          53.3050    36.7240    66.3380 c6         1 8XI       0.142800
     11 S1          54.9100    36.0450    66.8600 ss         1 8XI      -0.494000
     12 C5          55.7550    36.5260    65.3390 cy         1 8XI       0.192700
     13 C6          57.2850    36.7520    65.4740 cy         1 8XI       0.009700
     14 N2          57.9490    36.3440    66.6630 ns         1 8XI      -0.471900
     15 C7          58.6790    35.2070    66.7310 c          1 8XI       0.617100
     16 O2          58.9000    34.5020    65.7650 o          1 8XI      -0.598100
     17 C8          59.1570    34.8400    68.1330 c3         1 8XI       0.133800
     18 N3          60.4100    34.1280    68.0320 n8         1 8XI      -0.985200
     19 C9          58.0080    34.1090    68.8150 ca         1 8XI      -0.132300
     20 C14         57.2000    34.7730    69.7310 ca         1 8XI      -0.091500
     21 C13         56.1340    34.1240    70.3410 ca         1 8XI      -0.106500
     22 C12         55.8640    32.7980    70.0370 ca         1 8XI      -0.104000
     23 C11         56.6670    32.1250    69.1250 ca         1 8XI      -0.106500
     24 C10         57.7320    32.7760    68.5170 ca         1 8XI      -0.091500
     25 H4          52.6950    36.7480    67.2430 h1         1 8XI       0.065700
     26 H5          52.8180    36.0360    65.6420 h1         1 8XI       0.065700
     27 H6          55.4220    35.9200    64.4960 h2         1 8XI       0.098700
     28 H7          57.8220    36.3880    64.5970 h1         1 8XI       0.111700
     29 H8          57.7970    36.8740    67.5070 hn         1 8XI       0.329500
     30 H9          59.3390    35.7640    68.6920 h1         1 8XI       0.074700
     31 H10         60.6800    33.7900    68.9470 hn         1 8XI       0.407000
     32 H11         60.3140    33.3160    67.4360 hn         1 8XI       0.407000
     33 H13         57.4080    35.8090    69.9760 ha         1 8XI       0.113500
     34 H14         55.5180    34.6560    71.0550 ha         1 8XI       0.111000
     35 H15         55.0350    32.2880    70.5110 ha         1 8XI       0.108000
     36 H16         56.4640    31.0900    68.8840 ha         1 8XI       0.111000
     37 H17         58.3470    32.2340    67.8090 ha         1 8XI       0.113500
@<TRIPOS>BOND
     1     1     2 2   
     2     1     3 1   
     3     1    13 1   
     4     3     4 1   
     5     3    12 1   
     6     4     5 2   
     7     4     8 1   
     8     5     6 1   
     9     5    10 1   
    10     7     8 1   
    11     8     9 1   
    12    10    11 1   
    13    10    25 1   
    14    10    26 1   
    15    11    12 1   
    16    12    13 1   
    17    12    27 1   
    18    13    14 1   
    19    13    28 1   
    20    14    15 1   
    21    14    29 1   
    22    15    16 2   
    23    15    17 1   
    24    17    18 1   
    25    17    19 1   
    26    17    30 1   
    27    18    31 1   
    28    18    32 1   
    29    19    20 ar  
    30    19    24 ar  
    31    20    21 ar  
    32    20    33 1   
    33    21    22 ar  
    34    21    34 1   
    35    22    23 ar  
    36    22    35 1   
    37    23    24 ar  
    38    23    36 1   
    39    24    37 1   
@<TRIPOS>SUBSTRUCTURE
     1 8XI         1 TEMP              0 ****  ****    0 ROOT
