@<TRIPOS>MOLECULE
8XJ
   64    69     1     0     0
SMALL
No Charge or Current Charge


@<TRIPOS>ATOM
      1 C18          2.7510    -2.3980    -2.1020 ca         1 8XJ      -0.126000
      2 C17          3.7610    -1.8880    -1.2700 ca         1 8XJ      -0.075000
      3 C16          3.4930    -0.8100    -0.3940 ca         1 8XJ      -0.152600
      4 C15          2.1870    -0.2720    -0.3770 ca         1 8XJ      -0.036000
      5 C19          1.4530    -1.8550    -2.0830 ca         1 8XJ      -0.029300
      6 C20         -6.3510    -3.5280     0.7420 c3         1 8XJ       0.095300
      7 C21          1.1570    -0.7830    -1.2000 cp         1 8XJ      -0.049000
      8 C23         -6.8310     1.7440    -0.4690 ca         1 8XJ      -0.052000
      9 C24         -8.0660     2.1640     0.0560 ca         1 8XJ      -0.158500
     10 C11          6.9620    -0.3610     1.2090 cx         1 8XJ      -0.017900
     11 C34         -0.2020    -0.1700    -1.1290 cp         1 8XJ      -0.101000
     12 C27         -6.4970     0.3080     1.4650 ca         1 8XJ      -0.052000
     13 C33         -0.3890     1.1730    -1.5620 ca         1 8XJ      -0.052000
     14 C2           0.4090    -2.4320    -3.0340 c3         1 8XJ      -0.054800
     15 N3           8.4010     0.6490    -0.4820 nb         1 8XJ      -0.177500
     16 C4           8.9870     1.7350    -1.0260 ca         1 8XJ       0.117400
     17 C5           8.7930     3.0180    -0.4880 ca         1 8XJ      -0.225000
     18 C6           7.9650     3.1320     0.6410 ca         1 8XJ       0.117400
     19 N7           7.3750     2.0510     1.1910 nb         1 8XJ      -0.177500
     20 C8           6.9490    -0.6040     2.7040 cx         1 8XJ      -0.094400
     21 C9           7.8090    -1.4610     1.8120 cx         1 8XJ      -0.094400
     22 C10          7.6200     0.8570     0.6040 ca         1 8XJ       0.160300
     23 C14          4.5500    -0.2210     0.5180 c          1 8XJ       0.620700
     24 C25         -8.5170     1.6500     1.2800 ca         1 8XJ       0.190000
     25 C26         -7.7330     0.7300     1.9890 ca         1 8XJ      -0.158500
     26 C28         -6.0440     0.7920     0.2160 ca         1 8XJ      -0.073800
     27 N29         -5.6980    -2.2870     0.3230 ns         1 8XJ      -0.503900
     28 O30         -3.5770    -2.9470     0.7260 o          1 8XJ      -0.577100
     29 C32         -1.6590     1.7790    -1.5140 ca         1 8XJ      -0.125000
     30 C35         -1.3190    -0.8980    -0.6230 ca         1 8XJ       0.248000
     31 C36         -2.7220     1.0200    -1.0190 ca         1 8XJ       0.085100
     32 C37         -2.5860    -0.2760    -0.5750 ca         1 8XJ      -0.133800
     33 C38         -3.9190    -0.7240    -0.1350 cc         1 8XJ      -0.175400
     34 C39         -4.7400     0.3890    -0.3530 cd         1 8XJ       0.119900
     35 O40         -4.0120     1.4130    -0.8980 os         1 8XJ      -0.162200
     36 H57          2.9840    -3.2220    -2.7720 ha         1 8XJ       0.115000
     37 H44          4.7460    -2.3430    -1.3250 ha         1 8XJ       0.113000
     38 H43          1.9530     0.5540     0.2910 ha         1 8XJ       0.140000
     39 H59         -5.9970    -4.3610     0.1200 h1         1 8XJ       0.041367
     40 H45         -6.1140    -3.7320     1.7950 h1         1 8XJ       0.041367
     41 H58         -7.4370    -3.4270     0.6290 h1         1 8XJ       0.041367
     42 H42         -6.4920     2.1490    -1.4200 ha         1 8XJ       0.132500
     43 H60         -8.6730     2.8870    -0.4830 ha         1 8XJ       0.138000
     44 H41         -5.8820    -0.3680     2.0550 ha         1 8XJ       0.132500
     45 H64          0.4580     1.7380    -1.9460 ha         1 8XJ       0.127000
     46 H46         -0.2070    -3.1860    -2.5300 hc         1 8XJ       0.048367
     47 H48         -0.2590    -1.6530    -3.4210 hc         1 8XJ       0.048367
     48 H47          0.8770    -2.9130    -3.9010 hc         1 8XJ       0.048367
     49 H49          9.6160     1.5720    -1.8990 h4         1 8XJ       0.023600
     50 H50          9.2670     3.8910    -0.9290 ha         1 8XJ       0.135000
     51 H51          7.7700     4.0950     1.1100 h4         1 8XJ       0.023600
     52 H52          7.4500     0.1170     3.3450 hc         1 8XJ       0.086200
     53 H53          6.0620    -1.0570     3.1410 hc         1 8XJ       0.086200
     54 H55          7.5030    -2.4930     1.6540 hc         1 8XJ       0.086200
     55 H54          8.8850    -1.3100     1.8540 hc         1 8XJ       0.086200
     56 H56          5.9160    -1.5470    -0.2110 hn         1 8XJ       0.319500
     57 H61         -8.0770     0.3530     2.9490 ha         1 8XJ       0.138000
     58 H62         -6.2720    -1.5320    -0.0320 hn         1 8XJ       0.320500
     59 H63         -1.8100     2.8010    -1.8510 ha         1 8XJ       0.138000
     60 F1          -1.1420    -2.1620    -0.1850 f          1 8XJ      -0.149000
     61 C31         -4.3400    -2.0670     0.3610 c          1 8XJ       0.631300
     62 O12          4.3060     0.7090     1.2770 o          1 8XJ      -0.582100
     63 N13          5.8080    -0.7910     0.4520 ns         1 8XJ      -0.455900
     64 F22         -9.7010     2.0560     1.7850 f          1 8XJ      -0.172000
@<TRIPOS>BOND
     1     1     2 ar  
     2     1     5 ar  
     3     1    36 1   
     4     2     3 ar  
     5     2    37 1   
     6     3     4 ar  
     7     3    23 1   
     8     4     7 ar  
     9     4    38 1   
    10     5     7 ar  
    11     5    14 1   
    12     6    27 1   
    13     6    39 1   
    14     6    40 1   
    15     6    41 1   
    16     7    11 1   
    17     8     9 ar  
    18     8    26 ar  
    19     8    42 1   
    20     9    24 ar  
    21     9    43 1   
    22    10    20 1   
    23    10    21 1   
    24    10    22 1   
    25    10    63 1   
    26    11    13 ar  
    27    11    30 ar  
    28    12    25 ar  
    29    12    26 ar  
    30    12    44 1   
    31    13    29 ar  
    32    13    45 1   
    33    14    46 1   
    34    14    47 1   
    35    14    48 1   
    36    15    16 ar  
    37    15    22 ar  
    38    16    17 ar  
    39    16    49 1   
    40    17    18 ar  
    41    17    50 1   
    42    18    19 ar  
    43    18    51 1   
    44    19    22 ar  
    45    20    21 1   
    46    20    52 1   
    47    20    53 1   
    48    21    54 1   
    49    21    55 1   
    50    23    62 2   
    51    23    63 1   
    52    24    25 ar  
    53    24    64 1   
    54    25    57 1   
    55    26    34 1   
    56    27    58 1   
    57    27    61 1   
    58    28    61 2   
    59    29    31 ar  
    60    29    59 1   
    61    30    32 ar  
    62    30    60 1   
    63    31    32 ar  
    64    31    35 1   
    65    32    33 1   
    66    33    34 2   
    67    33    61 1   
    68    34    35 1   
    69    56    63 1   
@<TRIPOS>SUBSTRUCTURE
     1 8XJ         1 TEMP              0 ****  ****    0 ROOT
