@<TRIPOS>MOLECULE
8XJ
   64    69     1     0     0
SMALL
abcg2


@<TRIPOS>ATOM
      1 C18          2.5670    -2.8180    -1.9320 ca         1 8XJ      -0.126000
      2 C17          3.6320    -2.3800    -1.1620 ca         1 8XJ      -0.075000
      3 C16          3.4850    -1.2720    -0.3340 ca         1 8XJ      -0.152600
      4 C15          2.2500    -0.6320    -0.2860 ca         1 8XJ      -0.036000
      5 C19          1.3330    -2.1750    -1.9050 ca         1 8XJ      -0.029300
      6 C20         -5.8590    -3.3620     1.0250 c3         1 8XJ       0.095300
      7 C21          1.1820    -1.0660    -1.0610 cp         1 8XJ      -0.049000
      8 C23         -6.5300     1.8830    -0.8430 ca         1 8XJ      -0.052000
      9 C24         -7.8530     2.2280    -0.6260 ca         1 8XJ      -0.158500
     10 C11          6.9610    -0.5180     0.8310 cx         1 8XJ      -0.017900
     11 C34         -0.0950    -0.3150    -1.0040 cp         1 8XJ      -0.101000
     12 C27         -6.4930     0.6830     1.2430 ca         1 8XJ      -0.052000
     13 C33         -0.1900     0.9670    -1.5710 ca         1 8XJ      -0.052000
     14 C2           0.2090    -2.6660    -2.7670 c3         1 8XJ      -0.054800
     15 N3           6.4840     1.5850    -0.2430 nb         1 8XJ      -0.177500
     16 C4           6.7320     2.8780    -0.4050 ca         1 8XJ       0.117400
     17 C5           7.7120     3.5410     0.3120 ca         1 8XJ      -0.225000
     18 C6           8.4270     2.7710     1.2150 ca         1 8XJ       0.117400
     19 N7           8.1860     1.4800     1.3870 nb         1 8XJ      -0.177500
     20 C8           7.3140    -1.1600     2.1450 cx         1 8XJ      -0.094400
     21 C9           8.1560    -1.4310     0.9520 cx         1 8XJ      -0.094400
     22 C10          7.2200     0.9390     0.6520 ca         1 8XJ       0.160300
     23 C14          4.5810    -0.7540     0.5360 c          1 8XJ       0.620700
     24 C25         -8.4750     1.7830     0.5250 ca         1 8XJ       0.190000
     25 C26         -7.8160     1.0180     1.4690 ca         1 8XJ      -0.158500
     26 C28         -5.8370     1.0980     0.0820 ca         1 8XJ      -0.073800
     27 N29         -5.2440    -2.2250     0.3800 ns         1 8XJ      -0.503900
     28 O30         -3.6150    -1.9630     1.9180 o          1 8XJ      -0.577100
     29 C32         -1.3630     1.7000    -1.5580 ca         1 8XJ      -0.125000
     30 C35         -1.2090    -0.8530    -0.3920 ca         1 8XJ       0.248000
     31 C36         -2.4470     1.1050    -0.9400 ca         1 8XJ       0.085100
     32 C37         -2.4070    -0.1520    -0.3390 ca         1 8XJ      -0.133800
     33 C38         -3.7330    -0.3930     0.1540 cc         1 8XJ      -0.175400
     34 C39         -4.4530     0.7170    -0.1620 cd         1 8XJ       0.119900
     35 O40         -3.6870     1.6230    -0.8220 os         1 8XJ      -0.162200
     36 H57          2.6980    -3.6810    -2.5730 ha         1 8XJ       0.115000
     37 H44          4.5640    -2.9290    -1.2030 ha         1 8XJ       0.113000
     38 H43          2.1180     0.2230     0.3640 ha         1 8XJ       0.140000
     39 H59         -5.1700    -4.2020     1.1030 h1         1 8XJ       0.041367
     40 H45         -6.2110    -3.1110     2.0260 h1         1 8XJ       0.041367
     41 H58         -6.7130    -3.6710     0.4290 h1         1 8XJ       0.041367
     42 H42         -6.0450     2.2190    -1.7490 ha         1 8XJ       0.132500
     43 H60         -8.3920     2.8300    -1.3460 ha         1 8XJ       0.138000
     44 H41         -5.9650     0.1180     2.0000 ha         1 8XJ       0.132500
     45 H64          0.6880     1.3830    -2.0470 ha         1 8XJ       0.127000
     46 H46         -0.5110    -3.2440    -2.1870 hc         1 8XJ       0.048367
     47 H48         -0.3360    -1.8430    -3.2280 hc         1 8XJ       0.048367
     48 H47          0.5800    -3.3130    -3.5610 hc         1 8XJ       0.048367
     49 H49          6.1280     3.4020    -1.1370 h4         1 8XJ       0.023600
     50 H50          7.9100     4.5930     0.1740 ha         1 8XJ       0.135000
     51 H51          9.2170     3.2050     1.8170 h4         1 8XJ       0.023600
     52 H52          7.7100    -0.5160     2.9180 hc         1 8XJ       0.086200
     53 H53          6.6510    -1.9410     2.4910 hc         1 8XJ       0.086200
     54 H55          8.0780    -2.3980     0.4710 hc         1 8XJ       0.086200
     55 H54          9.1320    -0.9680     0.8930 hc         1 8XJ       0.086200
     56 H56          5.9890    -1.3360    -0.8190 hn         1 8XJ       0.319500
     57 H61         -8.3210     0.6990     2.3700 ha         1 8XJ       0.138000
     58 H62         -5.6360    -1.8940    -0.4850 hn         1 8XJ       0.320500
     59 H63         -1.4270     2.6790    -2.0130 ha         1 8XJ       0.138000
     60 F1          -1.1420    -2.0730     0.1500 f          1 8XJ      -0.149000
     61 C31         -4.1860    -1.5960     0.9010 c          1 8XJ       0.631300
     62 O12          4.3450    -0.1260     1.5550 o          1 8XJ      -0.582100
     63 N13          5.8390    -1.0370     0.1320 ns         1 8XJ      -0.455900
     64 F22         -9.7560     2.1100     0.7370 f          1 8XJ      -0.172000
@<TRIPOS>BOND
     1     1     2 ar  
     2     1     5 ar  
     3     1    36 1   
     4     2     3 ar  
     5     2    37 1   
     6     3     4 ar  
     7     3    23 1   
     8     4     7 ar  
     9     4    38 1   
    10     5     7 ar  
    11     5    14 1   
    12     6    27 1   
    13     6    39 1   
    14     6    40 1   
    15     6    41 1   
    16     7    11 1   
    17     8     9 ar  
    18     8    26 ar  
    19     8    42 1   
    20     9    24 ar  
    21     9    43 1   
    22    10    20 1   
    23    10    21 1   
    24    10    22 1   
    25    10    63 1   
    26    11    13 ar  
    27    11    30 ar  
    28    12    25 ar  
    29    12    26 ar  
    30    12    44 1   
    31    13    29 ar  
    32    13    45 1   
    33    14    46 1   
    34    14    47 1   
    35    14    48 1   
    36    15    16 ar  
    37    15    22 ar  
    38    16    17 ar  
    39    16    49 1   
    40    17    18 ar  
    41    17    50 1   
    42    18    19 ar  
    43    18    51 1   
    44    19    22 ar  
    45    20    21 1   
    46    20    52 1   
    47    20    53 1   
    48    21    54 1   
    49    21    55 1   
    50    23    62 2   
    51    23    63 1   
    52    24    25 ar  
    53    24    64 1   
    54    25    57 1   
    55    26    34 1   
    56    27    58 1   
    57    27    61 1   
    58    28    61 2   
    59    29    31 ar  
    60    29    59 1   
    61    30    32 ar  
    62    30    60 1   
    63    31    32 ar  
    64    31    35 1   
    65    32    33 1   
    66    33    34 2   
    67    33    61 1   
    68    34    35 1   
    69    56    63 1   
@<TRIPOS>SUBSTRUCTURE
     1 8XJ         1 TEMP              0 ****  ****    0 ROOT
