@<TRIPOS>MOLECULE
8XK
   51    54     1     0     0
SMALL
No Charge or Current Charge


@<TRIPOS>ATOM
      1 C1           5.5830    -0.1050    -0.5910 cc         1 8XK       0.249000
      2 C2           6.3230    -1.2430    -0.6310 cd         1 8XK      -0.237000
      3 C3           7.6550    -0.8710    -0.8970 cd         1 8XK       0.255900
      4 N6          -4.8960     0.5820     0.4650 n          1 8XK      -0.406800
      5 C7           1.0310    -0.7660     0.8470 ca         1 8XK       0.265500
      6 C8          -0.3200    -0.1870     0.8460 cc         1 8XK      -0.275500
      7 C9          -1.4530    -0.9560     0.9440 cd         1 8XK      -0.058000
      8 C10         -2.5730    -0.1180     0.7630 cd         1 8XK      -0.233600
      9 C11         -2.1320     1.1570     0.5420 cc         1 8XK      -0.118300
     10 C13         -3.0570     2.3300     0.3710 c6         1 8XK      -0.026100
     11 C14         -4.4040     1.8250    -0.1910 c6         1 8XK       0.112000
     12 C15         -4.0160    -0.4740     0.8160 c          1 8XK       0.616600
     13 C16         -6.3680     0.3860     0.5360 c3         1 8XK       0.100000
     14 O           -4.4060    -1.5860     1.1470 o          1 8XK      -0.548000
     15 C17         -7.0560     0.2010    -0.8370 c3         1 8XK       0.131600
     16 O1          -6.5120    -0.9660    -1.4810 os         1 8XK      -0.434000
     17 C18         -7.0590    -1.2380    -2.7820 c3         1 8XK       0.144900
     18 N5          -0.7330     1.1260     0.5660 na         1 8XK       0.076000
     19 C6           1.3010    -1.9880     1.4940 ca         1 8XK      -0.257000
     20 C5           2.6140    -2.4820     1.4540 ca         1 8XK       0.146900
     21 N3           3.5940    -1.8160     0.8180 nb         1 8XK      -0.218000
     22 N4           2.0210    -0.1020     0.2150 nb         1 8XK      -0.279000
     23 C4           3.2420    -0.6590     0.2290 ca         1 8XK       0.396900
     24 N2           4.2200     0.0720    -0.4300 nu         1 8XK      -0.926900
     25 N1           7.8040     0.4330    -1.0480 nc         1 8XK      -0.526800
     26 N            6.5120     0.9050    -0.8710 na         1 8XK       0.085800
     27 C            6.2380     2.3470    -0.9720 c3         1 8XK       0.065900
     28 H1           5.9600    -2.2540    -0.4940 ha         1 8XK       0.169000
     29 H2           8.5180    -1.5180    -0.9950 h4         1 8XK       0.036100
     30 H3          -1.4970    -2.0290     1.1100 ha         1 8XK       0.151000
     31 H4           0.5610     2.2930    -0.6210 h1         1 8XK       0.056700
     32 H5          -0.4270     3.2220     0.5450 h1         1 8XK       0.056700
     33 H6           0.9560     2.2620     1.1260 h1         1 8XK       0.056700
     34 H7          -3.2250     2.8210     1.3390 hc         1 8XK       0.061700
     35 H8          -2.6390     3.0890    -0.3030 hc         1 8XK       0.061700
     36 H9          -4.2810     1.6150    -1.2630 h1         1 8XK       0.044700
     37 H10         -5.1560     2.6220    -0.1000 h1         1 8XK       0.044700
     38 H11         -6.6070    -0.4780     1.1700 h1         1 8XK       0.066700
     39 H12         -6.8080     1.2640     1.0260 h1         1 8XK       0.066700
     40 H13         -8.1370     0.0870    -0.6850 h1         1 8XK       0.019700
     41 H14         -6.8910     1.0950    -1.4530 h1         1 8XK       0.019700
     42 H15         -6.5980    -2.1380    -3.2080 h1         1 8XK       0.027700
     43 H16         -8.1420    -1.4030    -2.7220 h1         1 8XK       0.027700
     44 H17         -6.8710    -0.4010    -3.4660 h1         1 8XK       0.027700
     45 H18          0.5290    -2.5360     2.0260 ha         1 8XK       0.144000
     46 H19          2.8860    -3.4180     1.9390 h4         1 8XK       0.027100
     47 H20          3.8820     0.9840    -0.7370 hn         1 8XK       0.510000
     48 H21          5.7030     2.6820    -0.0750 h1         1 8XK       0.054033
     49 H22          7.1780     2.9050    -1.0580 h1         1 8XK       0.054033
     50 H23          5.6220     2.5400    -1.8590 h1         1 8XK       0.054033
     51 C12          0.1420     2.2980     0.3920 c3         1 8XK       0.062900
@<TRIPOS>BOND
     1     1     2 2   
     2     1    24 1   
     3     1    26 1   
     4     2     3 1   
     5     2    28 1   
     6     3    25 2   
     7     3    29 1   
     8     4    11 1   
     9     4    12 1   
    10     4    13 1   
    11     5     6 1   
    12     5    19 ar  
    13     5    22 ar  
    14     6     7 2   
    15     6    18 1   
    16     7     8 1   
    17     7    30 1   
    18     8     9 2   
    19     8    12 1   
    20     9    10 1   
    21     9    18 1   
    22    10    11 1   
    23    10    34 1   
    24    10    35 1   
    25    11    36 1   
    26    11    37 1   
    27    12    14 2   
    28    13    15 1   
    29    13    38 1   
    30    13    39 1   
    31    15    16 1   
    32    15    40 1   
    33    15    41 1   
    34    16    17 1   
    35    17    42 1   
    36    17    43 1   
    37    17    44 1   
    38    18    51 1   
    39    19    20 ar  
    40    19    45 1   
    41    20    21 ar  
    42    20    46 1   
    43    21    23 ar  
    44    22    23 ar  
    45    23    24 1   
    46    24    47 1   
    47    25    26 1   
    48    26    27 1   
    49    27    48 1   
    50    27    49 1   
    51    27    50 1   
    52    31    51 1   
    53    32    51 1   
    54    33    51 1   
@<TRIPOS>SUBSTRUCTURE
     1 8XK         1 TEMP              0 ****  ****    0 ROOT
