@<TRIPOS>MOLECULE
8XK
   51    54     1     0     0
SMALL
bcc


@<TRIPOS>ATOM
      1 C1           5.5380     0.0100    -0.3200 cc         1 8XK       0.161300
      2 C2           6.3440    -1.0770    -0.0310 cd         1 8XK      -0.320300
      3 C3           7.6360    -0.6220    -0.3390 cd         1 8XK       0.321200
      4 N6          -4.8030     0.6460     0.5340 n          1 8XK      -0.473800
      5 C7           0.9960    -0.9010     0.5880 ca         1 8XK       0.593800
      6 C8          -0.3600    -0.3850     0.5800 cc         1 8XK      -0.224800
      7 C9          -1.5210    -1.1110     0.7490 cd         1 8XK      -0.076000
      8 C10         -2.5930    -0.2130     0.6260 cd         1 8XK      -0.233600
      9 C11         -2.0550     1.0380     0.3980 cc         1 8XK      -0.067600
     10 C13         -2.9100     2.2440     0.2810 c6         1 8XK      -0.026100
     11 C14         -4.2740     1.7800    -0.2150 c6         1 8XK       0.112000
     12 C15         -4.0260    -0.4350     0.8150 c          1 8XK       0.759100
     13 C16         -6.2440     0.5540     0.6400 c3         1 8XK       0.100000
     14 O           -4.4650    -1.4930     1.2500 o          1 8XK      -0.623500
     15 C17         -6.9390     0.3110    -0.6860 c3         1 8XK       0.108400
     16 O1          -6.4750    -0.8850    -1.2510 os         1 8XK      -0.387600
     17 C18         -7.0420    -1.1420    -2.5100 c3         1 8XK       0.121700
     18 N5          -0.7140     0.9420     0.3740 na         1 8XK       0.003900
     19 C6           1.2550    -2.2110     1.0220 ca         1 8XK      -0.405600
     20 C5           2.5660    -2.6210     0.9870 ca         1 8XK       0.475200
     21 N3           3.5690    -1.8460     0.5760 nb         1 8XK      -0.744000
     22 N4           1.9870    -0.1250     0.1710 nb         1 8XK      -0.805000
     23 C4           3.2200    -0.6290     0.1920 ca         1 8XK       0.922900
     24 N2           4.1840     0.2370    -0.2390 nu         1 8XK      -0.733300
     25 N1           7.6380     0.6200    -0.7730 nc         1 8XK      -0.526800
     26 N            6.3510     0.9970    -0.7580 na         1 8XK       0.064400
     27 C            5.9690     2.3250    -1.1690 c3         1 8XK       0.036600
     28 H1           6.0410    -2.0360     0.3410 ha         1 8XK       0.187000
     29 H2           8.5630    -1.1690    -0.2520 h4         1 8XK       0.036100
     30 H3          -1.5890    -2.1740     0.9170 ha         1 8XK       0.169000
     31 H4           0.7080     2.0420    -0.7230 h1         1 8XK       0.056700
     32 H5          -0.4290     2.9900     0.2450 h1         1 8XK       0.056700
     33 H6           0.8900     2.1270     1.0310 h1         1 8XK       0.056700
     34 H7          -2.9960     2.7450     1.2510 hc         1 8XK       0.061700
     35 H8          -2.5180     2.9760    -0.4250 hc         1 8XK       0.061700
     36 H9          -4.1960     1.5320    -1.2790 h1         1 8XK       0.044700
     37 H10         -4.9870     2.5990    -0.1270 h1         1 8XK       0.044700
     38 H11         -6.4940    -0.2360     1.3460 h1         1 8XK       0.066700
     39 H12         -6.6260     1.4910     1.0540 h1         1 8XK       0.066700
     40 H13         -8.0240     0.2770    -0.5040 h1         1 8XK       0.019700
     41 H14         -6.7670     1.1550    -1.3710 h1         1 8XK       0.019700
     42 H15         -6.6090    -2.0650    -2.8920 h1         1 8XK       0.027700
     43 H16         -8.1300    -1.2670    -2.4560 h1         1 8XK       0.027700
     44 H17         -6.8330    -0.3380    -3.2270 h1         1 8XK       0.027700
     45 H18          0.4780    -2.8700     1.3790 ha         1 8XK       0.162000
     46 H19          2.8350    -3.6210     1.3090 h4         1 8XK       0.027100
     47 H20          3.8320     1.1360    -0.5310 hn         1 8XK       0.454800
     48 H21          5.5030     2.8760    -0.3510 h1         1 8XK       0.054033
     49 H22          6.8680     2.8530    -1.4720 h1         1 8XK       0.054033
     50 H23          5.2840     2.2980    -2.0180 h1         1 8XK       0.054033
     51 C12          0.1700     2.0840     0.2190 c3         1 8XK       0.033600
@<TRIPOS>BOND
     1     1     2 2   
     2     1    24 1   
     3     1    26 1   
     4     2     3 1   
     5     2    28 1   
     6     3    25 2   
     7     3    29 1   
     8     4    11 1   
     9     4    12 1   
    10     4    13 1   
    11     5     6 1   
    12     5    19 ar  
    13     5    22 ar  
    14     6     7 2   
    15     6    18 1   
    16     7     8 1   
    17     7    30 1   
    18     8     9 2   
    19     8    12 1   
    20     9    10 1   
    21     9    18 1   
    22    10    11 1   
    23    10    34 1   
    24    10    35 1   
    25    11    36 1   
    26    11    37 1   
    27    12    14 2   
    28    13    15 1   
    29    13    38 1   
    30    13    39 1   
    31    15    16 1   
    32    15    40 1   
    33    15    41 1   
    34    16    17 1   
    35    17    42 1   
    36    17    43 1   
    37    17    44 1   
    38    18    51 1   
    39    19    20 ar  
    40    19    45 1   
    41    20    21 ar  
    42    20    46 1   
    43    21    23 ar  
    44    22    23 ar  
    45    23    24 1   
    46    24    47 1   
    47    25    26 1   
    48    26    27 1   
    49    27    48 1   
    50    27    49 1   
    51    27    50 1   
    52    31    51 1   
    53    32    51 1   
    54    33    51 1   
@<TRIPOS>SUBSTRUCTURE
     1 8XK         1 TEMP              0 ****  ****    0 ROOT
