@<TRIPOS>MOLECULE
8XL
   21    22     1     0     0
SMALL
No Charge or Current Charge


@<TRIPOS>ATOM
      1 C10        -12.0970   -20.1860   -41.1710 ca         1 8XL      -0.094000
      2 C13        -14.7420   -20.1640   -40.3120 ca         1 8XL      -0.081800
      3 C01        -18.9390   -18.2380   -37.9410 c1         1 8XL       0.501000
      4 N02        -18.5690   -19.2970   -38.2790 n1         1 8XL      -1.180700
      5 C03        -18.1680   -20.5330   -38.5890 ce         1 8XL       0.387700
      6 C04        -17.0630   -20.7620   -39.3610 cf         1 8XL      -0.112000
      7 C05        -16.1120   -19.8290   -39.9910 cd         1 8XL      -0.130200
      8 C06        -16.3840   -18.5340   -40.4230 cc         1 8XL      -0.117100
      9 N07        -15.1790   -18.0740   -40.9970 na         1 8XL      -0.212700
     10 C08        -14.2130   -19.0620   -40.9230 ca         1 8XL      -0.055200
     11 C09        -12.8860   -19.0320   -41.3710 ca         1 8XL      -0.120000
     12 C11        -12.6450   -21.3270   -40.5350 ca         1 8XL      -0.133000
     13 C12        -13.9860   -21.3260   -40.0940 ca         1 8XL      -0.066000
     14 H6         -11.0620   -20.1980   -41.5060 ha         1 8XL       0.112000
     15 H1         -18.7530   -21.3750   -38.1840 h4         1 8XL       0.201000
     16 H2         -16.8170   -21.8120   -39.5040 ha         1 8XL       0.183000
     17 H3         -17.2920   -17.9400   -40.3830 h4         1 8XL       0.224000
     18 H4         -15.0400   -17.1570   -41.4120 hn         1 8XL       0.353000
     19 H5         -12.4750   -18.1500   -41.8570 ha         1 8XL       0.115000
     20 H7         -12.0280   -22.2100   -40.3840 ha         1 8XL       0.112000
     21 H8         -14.4130   -22.1960   -39.6020 ha         1 8XL       0.113000
@<TRIPOS>BOND
     1     1    11 ar  
     2     1    12 ar  
     3     1    14 1   
     4     2     7 1   
     5     2    10 ar  
     6     2    13 ar  
     7     3     4 3   
     8     4     5 1   
     9     5     6 2   
    10     5    15 1   
    11     6     7 1   
    12     6    16 1   
    13     7     8 2   
    14     8     9 1   
    15     8    17 1   
    16     9    10 1   
    17     9    18 1   
    18    10    11 ar  
    19    11    19 1   
    20    12    13 ar  
    21    12    20 1   
    22    13    21 1   
@<TRIPOS>SUBSTRUCTURE
     1 8XL         1 TEMP              0 ****  ****    0 ROOT
