@<TRIPOS>MOLECULE
8XL
   21    22     1     0     0
SMALL
abcg2


@<TRIPOS>ATOM
      1 C10        -12.1680   -20.2100   -41.3270 ca         1 8XL      -0.094000
      2 C13        -14.7230   -20.1840   -40.2260 ca         1 8XL      -0.081800
      3 C01        -19.4340   -18.3250   -38.7790 c1         1 8XL       0.501000
      4 N02        -18.8340   -19.3240   -38.7130 n1         1 8XL      -1.180700
      5 C03        -18.1680   -20.5160   -38.6060 ce         1 8XL       0.387700
      6 C04        -16.9320   -20.7220   -39.0840 cf         1 8XL      -0.112000
      7 C05        -16.0460   -19.8280   -39.7810 cd         1 8XL      -0.130200
      8 C06        -16.2320   -18.5160   -40.1690 cc         1 8XL      -0.117100
      9 N07        -15.1280   -18.0660   -40.8080 na         1 8XL      -0.212700
     10 C08        -14.1820   -19.0530   -40.8650 ca         1 8XL      -0.055200
     11 C09        -12.9050   -19.0460   -41.4220 ca         1 8XL      -0.120000
     12 C11        -12.6870   -21.3510   -40.6940 ca         1 8XL      -0.133000
     13 C12        -13.9540   -21.3490   -40.1440 ca         1 8XL      -0.066000
     14 H6         -11.1720   -20.2440   -41.7490 ha         1 8XL       0.112000
     15 H1         -18.7140   -21.2980   -38.1000 h4         1 8XL       0.201000
     16 H2         -16.5510   -21.7220   -38.9120 ha         1 8XL       0.183000
     17 H3         -17.0760   -17.8600   -40.0390 h4         1 8XL       0.224000
     18 H4         -15.0310   -17.1390   -41.1900 hn         1 8XL       0.353000
     19 H5         -12.5080   -18.1650   -41.9100 ha         1 8XL       0.115000
     20 H7         -12.0810   -22.2460   -40.6410 ha         1 8XL       0.112000
     21 H8         -14.3390   -22.2390   -39.6610 ha         1 8XL       0.113000
@<TRIPOS>BOND
     1     1    11 ar  
     2     1    12 ar  
     3     1    14 1   
     4     2     7 1   
     5     2    10 ar  
     6     2    13 ar  
     7     3     4 3   
     8     4     5 1   
     9     5     6 2   
    10     5    15 1   
    11     6     7 1   
    12     6    16 1   
    13     7     8 2   
    14     8     9 1   
    15     8    17 1   
    16     9    10 1   
    17     9    18 1   
    18    10    11 ar  
    19    11    19 1   
    20    12    13 ar  
    21    12    20 1   
    22    13    21 1   
@<TRIPOS>SUBSTRUCTURE
     1 8XL         1 TEMP              0 ****  ****    0 ROOT
