@<TRIPOS>MOLECULE
8XM
   64    68     1     0     0
SMALL
abcg2


@<TRIPOS>ATOM
      1 C13         22.8200     8.0670    15.1210 cp         1 8XM      -0.033000
      2 C18         31.5870    11.6910    16.5410 ca         1 8XM      -0.153500
      3 C17         32.3210    11.8120    15.3740 ca         1 8XM       0.184000
      4 C16         31.8240    11.4360    14.1390 ca         1 8XM      -0.153500
      5 C15         30.5420    10.9100    14.0760 ca         1 8XM      -0.052500
      6 C19         30.3060    11.1670    16.4650 ca         1 8XM      -0.052500
      7 C22         21.6140     8.6140    14.6810 ca         1 8XM      -0.048000
      8 C23         20.3920     8.0160    14.9840 ca         1 8XM      -0.151600
      9 C24         20.3650     6.8570    15.7630 ca         1 8XM      -0.085000
     10 C27         19.1540     8.6750    14.4670 c          1 8XM       0.604700
     11 C33         17.0070     8.6210    12.2250 c3         1 8XM      -0.102100
     12 C1          24.1130     8.7100    14.7860 cp         1 8XM      -0.058000
     13 C2          24.2810     9.3530    13.5410 ca         1 8XM      -0.075000
     14 C3          25.4700     9.9760    13.1860 ca         1 8XM      -0.103000
     15 C4          26.4880     9.9390    14.1210 ca         1 8XM       0.066100
     16 C5          26.3670     9.3110    15.3650 ca         1 8XM      -0.082800
     17 C6          25.1660     8.6870    15.7010 ca         1 8XM      -0.035000
     18 O7          27.7340    10.4900    13.9940 os         1 8XM      -0.178200
     19 C8          28.4250    10.2100    15.1550 cc         1 8XM       0.127900
     20 C9          27.6460     9.4840    16.0140 cd         1 8XM      -0.181400
     21 C10         27.9840     8.9370    17.3510 c          1 8XM       0.627300
     22 N11         29.1700     8.3170    17.4620 ns         1 8XM      -0.505900
     23 O12         27.1920     9.0320    18.2940 o          1 8XM      -0.598100
     24 C14         29.7700    10.7620    15.2360 ca         1 8XM      -0.076800
     25 C25         21.5580     6.3090    16.2160 ca         1 8XM      -0.115000
     26 C26         22.7730     6.9000    15.8930 ca         1 8XM      -0.075000
     27 N28         18.0550     7.8910    14.3410 ns         1 8XM      -0.520900
     28 O29         19.1250     9.8730    14.1840 o          1 8XM      -0.585100
     29 C30         16.8150     8.3570    13.7200 c3         1 8XM       0.063400
     30 C31         15.7480     7.2720    13.9350 c3         1 8XM      -0.102100
     31 C32         16.3190     9.6290    14.4260 c          1 8XM       0.615100
     32 N34         16.4660     9.6330    15.7870 ns         1 8XM      -0.458400
     33 O35         15.7520    10.5360    13.8410 o          1 8XM      -0.557100
     34 C36         16.0440    10.6400    16.6160 cc         1 8XM       0.523300
     35 S37         15.2250    12.0710    16.0760 ss         1 8XM      -0.185800
     36 C38         15.1970    12.5370    17.7420 cc         1 8XM       0.341300
     37 N39         15.7440    11.6870    18.5520 nd         1 8XM      -0.293000
     38 N40         16.2380    10.5840    17.9060 nd         1 8XM      -0.402000
     39 H47         32.0080    12.0130    17.4840 ha         1 8XM       0.139500
     40 H46         32.4310    11.5500    13.2510 ha         1 8XM       0.139500
     41 H45         30.1390    10.6030    13.1210 ha         1 8XM       0.132500
     42 H48         29.7130    11.0930    17.3650 ha         1 8XM       0.132500
     43 H50         30.6550     7.3860    18.5620 h1         1 8XM       0.042700
     44 H49         29.7460     8.6180    19.4620 h1         1 8XM       0.042700
     45 H51         29.0090     7.0420    19.1300 h1         1 8XM       0.042700
     46 H52         21.6080     9.5270    14.1030 ha         1 8XM       0.139000
     47 H53         19.4280     6.3940    16.0410 ha         1 8XM       0.110000
     48 H62         17.7540     9.3940    12.0580 hc         1 8XM       0.056867
     49 H60         17.3350     7.6970    11.7490 hc         1 8XM       0.056867
     50 H61         16.0680     8.9350    11.7730 hc         1 8XM       0.056867
     51 H41         23.4660     9.3480    12.8300 ha         1 8XM       0.122000
     52 H42         25.5950    10.4590    12.2260 ha         1 8XM       0.135000
     53 H43         25.0490     8.2180    16.6680 ha         1 8XM       0.140000
     54 H44         29.7560     8.2360    16.6470 hn         1 8XM       0.320500
     55 H54         21.5420     5.4120    16.8220 ha         1 8XM       0.120000
     56 H55         23.6930     6.4440    16.2340 ha         1 8XM       0.122000
     57 H56         18.1540     6.8940    14.4560 hn         1 8XM       0.320500
     58 H58         15.6090     7.0560    14.9950 hc         1 8XM       0.056867
     59 H57         14.7980     7.5990    13.5130 hc         1 8XM       0.056867
     60 H59         16.0570     6.3570    13.4270 hc         1 8XM       0.056867
     61 H63         16.9540     8.8660    16.2310 hn         1 8XM       0.349500
     62 H64         14.7540    13.4670    18.0680 h5         1 8XM       0.058100
     63 F20         33.5720    12.3260    15.4450 f          1 8XM      -0.176000
     64 C21         29.6690     7.8130    18.7280 c3         1 8XM       0.097300
@<TRIPOS>BOND
     1     1     7 ar  
     2     1    12 1   
     3     1    26 ar  
     4     2     3 ar  
     5     2     6 ar  
     6     2    39 1   
     7     3     4 ar  
     8     3    63 1   
     9     4     5 ar  
    10     4    40 1   
    11     5    24 ar  
    12     5    41 1   
    13     6    24 ar  
    14     6    42 1   
    15     7     8 ar  
    16     7    46 1   
    17     8     9 ar  
    18     8    10 1   
    19     9    25 ar  
    20     9    47 1   
    21    10    27 1   
    22    10    28 2   
    23    11    29 1   
    24    11    48 1   
    25    11    49 1   
    26    11    50 1   
    27    12    13 ar  
    28    12    17 ar  
    29    13    14 ar  
    30    13    51 1   
    31    14    15 ar  
    32    14    52 1   
    33    15    16 ar  
    34    15    18 1   
    35    16    17 ar  
    36    16    20 1   
    37    17    53 1   
    38    18    19 1   
    39    19    20 2   
    40    19    24 1   
    41    20    21 1   
    42    21    22 1   
    43    21    23 2   
    44    22    54 1   
    45    22    64 1   
    46    25    26 ar  
    47    25    55 1   
    48    26    56 1   
    49    27    29 1   
    50    27    57 1   
    51    29    30 1   
    52    29    31 1   
    53    30    58 1   
    54    30    59 1   
    55    30    60 1   
    56    31    32 1   
    57    31    33 2   
    58    32    34 1   
    59    32    61 1   
    60    34    35 1   
    61    34    38 2   
    62    35    36 1   
    63    36    37 2   
    64    36    62 1   
    65    37    38 1   
    66    43    64 1   
    67    44    64 1   
    68    45    64 1   
@<TRIPOS>SUBSTRUCTURE
     1 8XM         1 TEMP              0 ****  ****    0 ROOT
