@<TRIPOS>MOLECULE
8XM
   64    68     1     0     0
SMALL
No Charge or Current Charge


@<TRIPOS>ATOM
      1 C13         22.7940     7.9720    14.6760 cp         1 8XM      -0.033000
      2 C18         31.2050    12.1320    16.7380 ca         1 8XM      -0.153500
      3 C17         32.3090    11.6340    16.0300 ca         1 8XM       0.184000
      4 C16         32.1270    10.6890    15.0090 ca         1 8XM      -0.153500
      5 C15         30.8330    10.2360    14.6950 ca         1 8XM      -0.052500
      6 C19         29.9100    11.6820    16.4260 ca         1 8XM      -0.052500
      7 C22         21.5470     8.5570    14.3440 ca         1 8XM      -0.048000
      8 C23         20.3230     7.8780    14.5470 ca         1 8XM      -0.151600
      9 C24         20.3580     6.5740    15.0980 ca         1 8XM      -0.085000
     10 C27         19.0250     8.5640    14.1740 c          1 8XM       0.604700
     11 C33         16.4460     8.4880    12.4540 c3         1 8XM      -0.102100
     12 C1          24.0780     8.7090    14.4520 cp         1 8XM      -0.058000
     13 C2          24.2490     9.5590    13.3170 ca         1 8XM      -0.075000
     14 C3          25.4540    10.2580    13.0950 ca         1 8XM      -0.103000
     15 C4          26.4900    10.1010    14.0210 ca         1 8XM       0.066100
     16 C5          26.3460     9.2890    15.1190 ca         1 8XM      -0.082800
     17 C6          25.1610     8.5790    15.3670 ca         1 8XM      -0.035000
     18 O7          27.7240    10.7100    13.9500 os         1 8XM      -0.178200
     19 C8          28.3820    10.2500    15.0850 cc         1 8XM       0.127900
     20 C9          27.5970     9.3770    15.8280 cd         1 8XM      -0.181400
     21 C10         27.9450     8.6510    17.0880 c          1 8XM       0.627300
     22 N11         29.2300     8.8360    17.5410 ns         1 8XM      -0.505900
     23 O12         27.1640     7.9260    17.6870 o          1 8XM      -0.598100
     24 C14         29.7220    10.7250    15.4080 ca         1 8XM      -0.076800
     25 C25         21.5840     5.9790    15.4340 ca         1 8XM      -0.115000
     26 C26         22.7880     6.6680    15.2260 ca         1 8XM      -0.075000
     27 N28         17.8610     7.8530    14.4120 ns         1 8XM      -0.520900
     28 O29         19.0000     9.6960    13.7160 o          1 8XM      -0.585100
     29 C30         16.4830     8.2280    13.9860 c3         1 8XM       0.063400
     30 C31         15.5730     7.0180    14.3110 c3         1 8XM      -0.102100
     31 C32         15.9350     9.4820    14.7730 c          1 8XM       0.615100
     32 N34         16.7150     9.9270    15.8140 ns         1 8XM      -0.458400
     33 O35         14.8920    10.0350    14.4540 o          1 8XM      -0.557100
     34 C36         16.5330    11.0030    16.6450 cc         1 8XM       0.523300
     35 S37         15.2070    12.1330    16.6130 ss         1 8XM      -0.185800
     36 C38         15.9920    12.9150    17.9500 cc         1 8XM       0.341300
     37 N39         17.1250    12.3510    18.3440 nd         1 8XM      -0.293000
     38 N40         17.4370    11.2390    17.5830 nd         1 8XM      -0.402000
     39 H47         31.3530    12.8670    17.5260 ha         1 8XM       0.139500
     40 H46         32.9870    10.3100    14.4630 ha         1 8XM       0.139500
     41 H45         30.6930     9.5030    13.9020 ha         1 8XM       0.132500
     42 H48         29.0530    12.0710    16.9730 ha         1 8XM       0.132500
     43 H50         30.8210     8.5450    18.8840 h1         1 8XM       0.042700
     44 H49         29.1910     8.5340    19.6240 h1         1 8XM       0.042700
     45 H51         29.7480     7.1300    18.6590 h1         1 8XM       0.042700
     46 H52         21.5330     9.5650    13.9340 ha         1 8XM       0.139000
     47 H53         19.4490     6.0060    15.2740 ha         1 8XM       0.110000
     48 H62         16.9780     9.4070    12.1850 hc         1 8XM       0.056867
     49 H60         16.9030     7.6550    11.9060 hc         1 8XM       0.056867
     50 H61         15.4130     8.5970    12.1010 hc         1 8XM       0.056867
     51 H41         23.4440     9.6650    12.5940 ha         1 8XM       0.122000
     52 H42         25.5780    10.9000    12.2270 ha         1 8XM       0.135000
     53 H43         25.0650     7.9520    16.2480 ha         1 8XM       0.140000
     54 H44         29.8270     9.4370    16.9880 hn         1 8XM       0.320500
     55 H54         21.6020     4.9750    15.8540 ha         1 8XM       0.120000
     56 H55         23.7260     6.1800    15.4810 ha         1 8XM       0.122000
     57 H56         17.9880     6.9280    14.8030 hn         1 8XM       0.320500
     58 H58         15.5780     6.8030    15.3870 hc         1 8XM       0.056867
     59 H57         14.5360     7.2140    14.0120 hc         1 8XM       0.056867
     60 H59         15.9120     6.1180    13.7820 hc         1 8XM       0.056867
     61 H63         17.5510     9.3850    15.9670 hn         1 8XM       0.349500
     62 H64         15.5500    13.7960    18.3970 h5         1 8XM       0.058100
     63 F20         33.5520    12.0680    16.3310 f          1 8XM      -0.176000
     64 C21         29.7800     8.2230    18.7510 c3         1 8XM       0.097300
@<TRIPOS>BOND
     1     1     7 ar  
     2     1    12 1   
     3     1    26 ar  
     4     2     3 ar  
     5     2     6 ar  
     6     2    39 1   
     7     3     4 ar  
     8     3    63 1   
     9     4     5 ar  
    10     4    40 1   
    11     5    24 ar  
    12     5    41 1   
    13     6    24 ar  
    14     6    42 1   
    15     7     8 ar  
    16     7    46 1   
    17     8     9 ar  
    18     8    10 1   
    19     9    25 ar  
    20     9    47 1   
    21    10    27 1   
    22    10    28 2   
    23    11    29 1   
    24    11    48 1   
    25    11    49 1   
    26    11    50 1   
    27    12    13 ar  
    28    12    17 ar  
    29    13    14 ar  
    30    13    51 1   
    31    14    15 ar  
    32    14    52 1   
    33    15    16 ar  
    34    15    18 1   
    35    16    17 ar  
    36    16    20 1   
    37    17    53 1   
    38    18    19 1   
    39    19    20 2   
    40    19    24 1   
    41    20    21 1   
    42    21    22 1   
    43    21    23 2   
    44    22    54 1   
    45    22    64 1   
    46    25    26 ar  
    47    25    55 1   
    48    26    56 1   
    49    27    29 1   
    50    27    57 1   
    51    29    30 1   
    52    29    31 1   
    53    30    58 1   
    54    30    59 1   
    55    30    60 1   
    56    31    32 1   
    57    31    33 2   
    58    32    34 1   
    59    32    61 1   
    60    34    35 1   
    61    34    38 2   
    62    35    36 1   
    63    36    37 2   
    64    36    62 1   
    65    37    38 1   
    66    43    64 1   
    67    44    64 1   
    68    45    64 1   
@<TRIPOS>SUBSTRUCTURE
     1 8XM         1 TEMP              0 ****  ****    0 ROOT
