@<TRIPOS>MOLECULE
8XN
   54    57     1     0     0
SMALL
No Charge or Current Charge


@<TRIPOS>ATOM
      1 C1          -1.8180    -2.7340    -0.3440 ca         1 8XN      -0.245300
      2 C2          -3.2150    -2.7760    -0.5140 ca         1 8XN       0.148900
      3 C3          -3.3300    -0.5160    -0.2040 ca         1 8XN       0.397900
      4 N6          -6.0810     2.0260     0.3650 na         1 8XN       0.088800
      5 C7           2.2140    -0.2400     0.4210 cc         1 8XN      -0.237600
      6 C8           2.4790    -1.3610    -0.2980 cd         1 8XN      -0.117300
      7 C9           3.8580    -1.7130    -0.7740 c6         1 8XN      -0.022100
      8 C10          4.9160    -1.1090     0.1900 c6         1 8XN       0.130700
      9 C11          3.2540     0.7160     0.8620 c          1 8XN       0.618600
     10 C13          6.3260     1.8390    -0.3800 c3         1 8XN       0.142600
     11 C14          5.7390     3.2600    -2.2470 c3         1 8XN       0.144900
     12 C15          5.1560    -2.0290     1.4160 c3         1 8XN      -0.116100
     13 C16         -5.4330     0.9130    -0.1840 cc         1 8XN       0.249000
     14 O            2.9860     1.7850     1.3950 o          1 8XN      -0.550000
     15 C6           0.8240    -0.1370     0.6110 cc         1 8XN      -0.029000
     16 N3           4.5880     0.2810     0.6330 n          1 8XN      -0.416800
     17 O1           5.3130     2.6290    -1.0290 os         1 8XN      -0.432000
     18 N2           1.2490    -1.9680    -0.5680 na         1 8XN      -0.079000
     19 C5           0.2140    -1.2290     0.0410 cd         1 8XN      -0.282500
     20 C4          -1.2410    -1.4660    -0.0760 ca         1 8XN       0.270500
     21 C           -1.0220    -4.0350    -0.4070 c3         1 8XN      -0.030800
     22 N1          -2.0110    -0.3590    -0.0240 nb         1 8XN      -0.251000
     23 N           -3.9750    -1.6690    -0.4430 nb         1 8XN      -0.214000
     24 N4          -4.0750     0.6530    -0.1200 nu         1 8XN      -0.924900
     25 N5          -7.4400     2.0650     0.0900 nc         1 8XN      -0.525800
     26 C18         -7.6130     0.9820    -0.6460 cd         1 8XN       0.253900
     27 C17         -6.4210     0.2600    -0.8490 cd         1 8XN      -0.239000
     28 H1          -3.7370    -3.7110    -0.7080 h4         1 8XN       0.022100
     29 H2           3.9890    -2.8000    -0.8680 hc         1 8XN       0.063200
     30 H3           4.0120    -1.2960    -1.7780 hc         1 8XN       0.063200
     31 H4           5.8680    -1.0790    -0.3600 h1         1 8XN       0.053700
     32 H5           6.5200     0.6410     1.4040 h1         1 8XN       0.063700
     33 H6           5.4210     2.0020     1.5810 h1         1 8XN       0.063700
     34 H7           7.1810     2.4670    -0.0990 h1         1 8XN       0.018200
     35 H8           6.6870     1.0470    -1.0490 h1         1 8XN       0.018200
     36 H9           6.0560     2.5110    -2.9840 h1         1 8XN       0.026700
     37 H10          4.9180     3.8430    -2.6820 h1         1 8XN       0.026700
     38 H11          6.5800     3.9410    -2.0590 h1         1 8XN       0.026700
     39 H12          5.4600    -3.0350     1.1040 hc         1 8XN       0.045367
     40 H13          5.9480    -1.6320     2.0610 hc         1 8XN       0.045367
     41 H14          4.2480    -2.1260     2.0230 hc         1 8XN       0.045367
     42 H15         -4.9020     2.6400     2.0020 h1         1 8XN       0.056367
     43 H16         -4.7890     3.6810     0.5490 h1         1 8XN       0.056367
     44 H17         -6.2420     3.7460     1.5880 h1         1 8XN       0.056367
     45 H18          0.3340     0.6840     1.1290 ha         1 8XN       0.162000
     46 H19          1.1250    -2.8010    -1.1340 hn         1 8XN       0.350000
     47 H20         -0.4980    -4.1340    -1.3660 hc         1 8XN       0.041033
     48 H21         -0.2830    -4.0940     0.4010 hc         1 8XN       0.041033
     49 H22         -1.6760    -4.9090    -0.3040 hc         1 8XN       0.041033
     50 H23         -3.5140     1.4500     0.1820 hn         1 8XN       0.517000
     51 H24         -8.6010     0.7530    -1.0260 h4         1 8XN       0.035100
     52 H25         -6.3170    -0.6430    -1.4360 ha         1 8XN       0.166000
     53 C12          5.7260     1.2020     0.8960 c3         1 8XN       0.101000
     54 C19         -5.4660     3.0890     1.1760 c3         1 8XN       0.063900
@<TRIPOS>BOND
     1     1     2 ar  
     2     1    20 ar  
     3     1    21 1   
     4     2    23 ar  
     5     2    28 1   
     6     3    22 ar  
     7     3    23 ar  
     8     3    24 1   
     9     4    13 1   
    10     4    25 1   
    11     4    54 1   
    12     5     6 2   
    13     5     9 1   
    14     5    15 1   
    15     6     7 1   
    16     6    18 1   
    17     7     8 1   
    18     7    29 1   
    19     7    30 1   
    20     8    12 1   
    21     8    16 1   
    22     8    31 1   
    23     9    14 2   
    24     9    16 1   
    25    10    17 1   
    26    10    34 1   
    27    10    35 1   
    28    10    53 1   
    29    11    17 1   
    30    11    36 1   
    31    11    37 1   
    32    11    38 1   
    33    12    39 1   
    34    12    40 1   
    35    12    41 1   
    36    13    24 1   
    37    13    27 2   
    38    15    19 2   
    39    15    45 1   
    40    16    53 1   
    41    18    19 1   
    42    18    46 1   
    43    19    20 1   
    44    20    22 ar  
    45    21    47 1   
    46    21    48 1   
    47    21    49 1   
    48    24    50 1   
    49    25    26 2   
    50    26    27 1   
    51    26    51 1   
    52    27    52 1   
    53    32    53 1   
    54    33    53 1   
    55    42    54 1   
    56    43    54 1   
    57    44    54 1   
@<TRIPOS>SUBSTRUCTURE
     1 8XN         1 TEMP              0 ****  ****    0 ROOT
