@<TRIPOS>MOLECULE
8XN
   54    57     1     0     0
SMALL
abcg2


@<TRIPOS>ATOM
      1 C1          -1.7160    -2.5570    -0.7320 ca         1 8XN      -0.245300
      2 C2          -3.0990    -2.6090    -0.7970 ca         1 8XN       0.148900
      3 C3          -3.3110    -0.4720    -0.1720 ca         1 8XN       0.397900
      4 N6          -6.0450     1.8260     0.5950 na         1 8XN       0.088800
      5 C7           2.1660     0.0160     0.2600 cc         1 8XN      -0.237600
      6 C8           2.4360    -1.1900    -0.3500 cd         1 8XN      -0.117300
      7 C9           3.8140    -1.6510    -0.6310 c6         1 8XN      -0.022100
      8 C10          4.7280    -1.0330     0.4300 c6         1 8XN       0.130700
      9 C11          3.2330     0.9340     0.6530 c          1 8XN       0.618600
     10 C13          6.3890     1.6530    -0.3640 c3         1 8XN       0.142600
     11 C14          6.1660     2.8130    -2.3770 c3         1 8XN       0.144900
     12 C15          4.6190    -1.7500     1.7720 c3         1 8XN      -0.116100
     13 C16         -5.4450     0.7110     0.1220 cc         1 8XN       0.249000
     14 O            3.0020     2.0900     0.9910 o          1 8XN      -0.550000
     15 C6           0.7670     0.1550     0.3290 cc         1 8XN      -0.029000
     16 N3           4.4840     0.4070     0.5850 n          1 8XN      -0.416800
     17 O1           5.5580     2.4490    -1.1650 os         1 8XN      -0.432000
     18 N2           1.2690    -1.7830    -0.6370 na         1 8XN      -0.079000
     19 C5           0.2190    -0.9830    -0.2300 cd         1 8XN      -0.282500
     20 C4          -1.1930    -1.3020    -0.3640 ca         1 8XN       0.270500
     21 C           -0.9200    -3.7920    -1.0220 c3         1 8XN      -0.030800
     22 N1          -2.0030    -0.2820    -0.0850 nb         1 8XN      -0.251000
     23 N           -3.9120    -1.5970    -0.5320 nb         1 8XN      -0.214000
     24 N4          -4.0730     0.6180     0.1460 nu         1 8XN      -0.924900
     25 N5          -7.3800     1.7670     0.4840 nc         1 8XN      -0.525800
     26 C18         -7.6260     0.5940    -0.0590 cd         1 8XN       0.253900
     27 C17         -6.4520    -0.1300    -0.3170 cd         1 8XN      -0.239000
     28 H1          -3.5790    -3.5410    -1.0810 h4         1 8XN       0.022100
     29 H2           3.9040    -2.7370    -0.6060 hc         1 8XN       0.063200
     30 H3           4.1210    -1.3250    -1.6300 hc         1 8XN       0.063200
     31 H4           5.7550    -1.1360     0.0740 h1         1 8XN       0.053700
     32 H5           6.3260     0.6710     1.5230 h1         1 8XN       0.063700
     33 H6           5.3230     2.1060     1.4470 h1         1 8XN       0.063700
     34 H7           7.2940     2.1990    -0.0610 h1         1 8XN       0.018200
     35 H8           6.7310     0.7670    -0.9190 h1         1 8XN       0.018200
     36 H9           6.4570     1.9370    -2.9700 h1         1 8XN       0.026700
     37 H10          5.4490     3.3960    -2.9530 h1         1 8XN       0.026700
     38 H11          7.0640     3.4230    -2.2230 h1         1 8XN       0.026700
     39 H12          4.9100    -2.7950     1.6690 hc         1 8XN       0.045367
     40 H13          5.2790    -1.2920     2.5100 hc         1 8XN       0.045367
     41 H14          3.6010    -1.7170     2.1630 hc         1 8XN       0.045367
     42 H15         -4.7660     2.7230     1.9960 h1         1 8XN       0.056367
     43 H16         -4.8090     3.5170     0.4070 h1         1 8XN       0.056367
     44 H17         -6.1820     3.6590     1.5120 h1         1 8XN       0.056367
     45 H18          0.2110     0.9750     0.7520 ha         1 8XN       0.162000
     46 H19          1.1900    -2.6610    -1.1240 hn         1 8XN       0.350000
     47 H20         -0.3560    -3.7190    -1.9550 hc         1 8XN       0.041033
     48 H21         -0.2250    -4.0370    -0.2170 hc         1 8XN       0.041033
     49 H22         -1.5860    -4.6470    -1.1340 hc         1 8XN       0.041033
     50 H23         -3.5430     1.4340     0.4140 hn         1 8XN       0.517000
     51 H24         -8.6430     0.2890    -0.2540 h4         1 8XN       0.035100
     52 H25         -6.3490    -1.1070    -0.7510 ha         1 8XN       0.166000
     53 C12          5.6390     1.2300     0.8830 c3         1 8XN       0.101000
     54 C19         -5.4050     2.9910     1.1540 c3         1 8XN       0.063900
@<TRIPOS>BOND
     1     1     2 ar  
     2     1    20 ar  
     3     1    21 1   
     4     2    23 ar  
     5     2    28 1   
     6     3    22 ar  
     7     3    23 ar  
     8     3    24 1   
     9     4    13 1   
    10     4    25 1   
    11     4    54 1   
    12     5     6 2   
    13     5     9 1   
    14     5    15 1   
    15     6     7 1   
    16     6    18 1   
    17     7     8 1   
    18     7    29 1   
    19     7    30 1   
    20     8    12 1   
    21     8    16 1   
    22     8    31 1   
    23     9    14 2   
    24     9    16 1   
    25    10    17 1   
    26    10    34 1   
    27    10    35 1   
    28    10    53 1   
    29    11    17 1   
    30    11    36 1   
    31    11    37 1   
    32    11    38 1   
    33    12    39 1   
    34    12    40 1   
    35    12    41 1   
    36    13    24 1   
    37    13    27 2   
    38    15    19 2   
    39    15    45 1   
    40    16    53 1   
    41    18    19 1   
    42    18    46 1   
    43    19    20 1   
    44    20    22 ar  
    45    21    47 1   
    46    21    48 1   
    47    21    49 1   
    48    24    50 1   
    49    25    26 2   
    50    26    27 1   
    51    26    51 1   
    52    27    52 1   
    53    32    53 1   
    54    33    53 1   
    55    42    54 1   
    56    43    54 1   
    57    44    54 1   
@<TRIPOS>SUBSTRUCTURE
     1 8XN         1 TEMP              0 ****  ****    0 ROOT
