@<TRIPOS>MOLECULE
8XO
   54    53     1     0     0
SMALL
No Charge or Current Charge


@<TRIPOS>ATOM
      1 C15         -7.2970    -0.6870    -0.3180 ce         1 8XO       0.303200
      2 C14         -6.6280     0.6660    -0.4560 c          1 8XO       0.479000
      3 C13         -5.2970     0.7920     0.2270 ce         1 8XO      -0.283200
      4 C12         -4.5390     1.9150     0.2220 c2         1 8XO      -0.177200
      5 C16         -9.1110    -2.2470    -0.6800 c3         1 8XO      -0.072200
      6 C11         -3.1940     2.0630     0.9010 c3         1 8XO      -0.049200
      7 O2          -9.0570    -2.8560     1.6320 o          1 8XO      -0.709000
      8 C17         -9.7600    -2.4380     0.7220 c          1 8XO       0.733000
      9 O1         -10.9420    -2.1510     0.8570 o          1 8XO      -0.709000
     10 N           -8.4540    -0.9320    -0.8660 n2         1 8XO      -0.476900
     11 O           -7.1150     1.6110    -1.0760 o          1 8XO      -0.521100
     12 C10         -2.0470     1.4640     0.0610 c3         1 8XO      -0.072400
     13 C9          -0.6630     1.6090     0.7330 c3         1 8XO      -0.075400
     14 C8           0.4830     1.0080    -0.1090 c3         1 8XO      -0.074400
     15 C7           1.8670     1.1530     0.5620 c3         1 8XO      -0.074400
     16 C            3.0130     0.5520    -0.2800 c3         1 8XO      -0.074400
     17 C1           4.3960     0.6970     0.3910 c3         1 8XO      -0.074400
     18 C2           5.5430     0.0960    -0.4510 c3         1 8XO      -0.074400
     19 C3           6.9260     0.2420     0.2200 c3         1 8XO      -0.074400
     20 C4           8.0730    -0.3590    -0.6220 c3         1 8XO      -0.074400
     21 C5           9.4560    -0.2140     0.0490 c3         1 8XO      -0.098400
     22 C6          10.6020    -0.8160    -0.7940 c3         1 8XO       0.157800
     23 N1          11.8890    -0.6320    -0.1110 n2         1 8XO      -0.437200
     24 N2          12.2820    -1.5760     0.5940 n1         1 8XO       0.230000
     25 N3          12.6390    -2.3490     1.3490 n1         1 8XO      -0.086000
     26 H1          -6.7740    -1.4580     0.2540 h4         1 8XO      -0.035200
     27 H2          -4.9490    -0.0980     0.7500 ha         1 8XO       0.178000
     28 H3          -4.8760     2.8140    -0.3010 ha         1 8XO       0.183000
     29 H4          -8.3890    -3.0620    -0.8270 h1         1 8XO       0.034700
     30 H5          -9.8990    -2.3810    -1.4320 h1         1 8XO       0.034700
     31 H6          -2.9870     3.1250     1.0860 hc         1 8XO       0.044700
     32 H7          -3.2160     1.5760     1.8840 hc         1 8XO       0.044700
     33 H9          -2.2510     0.4010    -0.1180 hc         1 8XO       0.041700
     34 H10         -2.0260     1.9550    -0.9200 hc         1 8XO       0.041700
     35 H11         -0.4590     2.6720     0.9110 hc         1 8XO       0.036200
     36 H12         -0.6860     1.1170     1.7130 hc         1 8XO       0.036200
     37 H13          0.2800    -0.0560    -0.2880 hc         1 8XO       0.037700
     38 H14          0.5060     1.4990    -1.0900 hc         1 8XO       0.037700
     39 H15          2.0700     2.2160     0.7400 hc         1 8XO       0.036700
     40 H16          1.8440     0.6620     1.5430 hc         1 8XO       0.036700
     41 H17          2.8100    -0.5120    -0.4590 hc         1 8XO       0.037200
     42 H18          3.0350     1.0430    -1.2610 hc         1 8XO       0.037200
     43 H19          4.6000     1.7610     0.5690 hc         1 8XO       0.037700
     44 H20          4.3740     0.2060     1.3720 hc         1 8XO       0.037700
     45 H21          5.3400    -0.9670    -0.6290 hc         1 8XO       0.037700
     46 H22          5.5650     0.5870    -1.4320 hc         1 8XO       0.037700
     47 H23          7.1300     1.3050     0.3980 hc         1 8XO       0.039200
     48 H24          6.9040    -0.2490     1.2010 hc         1 8XO       0.039200
     49 H25          7.8690    -1.4230    -0.8000 hc         1 8XO       0.039200
     50 H26          8.0950     0.1320    -1.6030 hc         1 8XO       0.039200
     51 H27          9.6610     0.8500     0.2260 hc         1 8XO       0.047700
     52 H28          9.4330    -0.7050     1.0300 hc         1 8XO       0.047700
     53 H29         10.3950    -1.8800    -0.9760 h1         1 8XO       0.059700
     54 H30         10.6220    -0.3180    -1.7720 h1         1 8XO       0.059700
@<TRIPOS>BOND
     1     1     2 1   
     2     1    10 2   
     3     1    26 1   
     4     2     3 1   
     5     2    11 2   
     6     3     4 2   
     7     3    27 1   
     8     4     6 1   
     9     4    28 1   
    10     5     8 1   
    11     5    10 1   
    12     5    29 1   
    13     5    30 1   
    14     6    12 1   
    15     6    31 1   
    16     6    32 1   
    17     7     8 1   
    18     8     9 1   
    19    12    13 1   
    20    12    33 1   
    21    12    34 1   
    22    13    14 1   
    23    13    35 1   
    24    13    36 1   
    25    14    15 1   
    26    14    37 1   
    27    14    38 1   
    28    15    16 1   
    29    15    39 1   
    30    15    40 1   
    31    16    17 1   
    32    16    41 1   
    33    16    42 1   
    34    17    18 1   
    35    17    43 1   
    36    17    44 1   
    37    18    19 1   
    38    18    45 1   
    39    18    46 1   
    40    19    20 1   
    41    19    47 1   
    42    19    48 1   
    43    20    21 1   
    44    20    49 1   
    45    20    50 1   
    46    21    22 1   
    47    21    51 1   
    48    21    52 1   
    49    22    23 1   
    50    22    53 1   
    51    22    54 1   
    52    23    24 1   
    53    24    25 3   
@<TRIPOS>SUBSTRUCTURE
     1 8XO         1 TEMP              0 ****  ****    0 ROOT
