@<TRIPOS>MOLECULE
8XO
   54    53     1     0     0
SMALL
abcg2


@<TRIPOS>ATOM
      1 C15         -7.6700    -0.6490    -0.0640 ce         1 8XO       0.303200
      2 C14         -6.6180     0.2820    -0.5840 c          1 8XO       0.479000
      3 C13         -5.3790     0.3140     0.2060 ce         1 8XO      -0.283200
      4 C12         -4.3470     1.1090    -0.0960 c2         1 8XO      -0.177200
      5 C16         -9.7380    -1.6720    -0.1380 c3         1 8XO      -0.072200
      6 C11         -3.0720     1.1690     0.6660 c3         1 8XO      -0.049200
      7 O2         -10.3660     0.1810     1.2430 o          1 8XO      -0.709000
      8 C17        -10.7610    -0.8790     0.7390 c          1 8XO       0.733000
      9 O1         -11.8650    -1.4340     0.8760 o          1 8XO      -0.709000
     10 N           -8.7420    -0.8150    -0.7060 n2         1 8XO      -0.476900
     11 O           -6.7990     0.9470    -1.5850 o          1 8XO      -0.521100
     12 C10         -1.8530     0.8950    -0.2180 c3         1 8XO      -0.072400
     13 C9          -0.5490     0.9410     0.5690 c3         1 8XO      -0.075400
     14 C8           0.6830     0.7290    -0.3010 c3         1 8XO      -0.074400
     15 C7           1.9800     0.6900     0.4990 c3         1 8XO      -0.074400
     16 C            3.2190     0.5360    -0.3750 c3         1 8XO      -0.074400
     17 C1           4.5130     0.4370     0.4240 c3         1 8XO      -0.074400
     18 C2           5.7510     0.3260    -0.4560 c3         1 8XO      -0.074400
     19 C3           7.0460     0.1970     0.3360 c3         1 8XO      -0.074400
     20 C4           8.2800     0.1150    -0.5540 c3         1 8XO      -0.074400
     21 C5           9.5750    -0.0280     0.2360 c3         1 8XO      -0.098400
     22 C6          10.7850    -0.0830    -0.6850 c3         1 8XO       0.157800
     23 N1          12.0600    -0.1650     0.0410 n2         1 8XO      -0.437200
     24 N2          12.3190    -1.2310     0.5630 n1         1 8XO       0.230000
     25 N3          12.6480    -2.1750     1.0810 n1         1 8XO      -0.086000
     26 H1          -7.4460    -1.1720     0.8720 h4         1 8XO      -0.035200
     27 H2          -5.3200    -0.3440     1.0670 ha         1 8XO       0.178000
     28 H3          -4.4230     1.7630    -0.9610 ha         1 8XO       0.183000
     29 H4          -9.3030    -2.4460     0.5120 h1         1 8XO       0.034700
     30 H5         -10.2750    -2.1770    -0.9410 h1         1 8XO       0.034700
     31 H6          -2.9730     2.1730     1.0940 hc         1 8XO       0.044700
     32 H7          -3.0970     0.4680     1.5040 hc         1 8XO       0.044700
     33 H9          -1.9580    -0.0850    -0.6930 hc         1 8XO       0.041700
     34 H10         -1.8210     1.6300    -1.0290 hc         1 8XO       0.041700
     35 H11         -0.4690     1.9050     1.0850 hc         1 8XO       0.036200
     36 H12         -0.5770     0.1780     1.3550 hc         1 8XO       0.036200
     37 H13          0.5780    -0.2060    -0.8620 hc         1 8XO       0.037700
     38 H14          0.7400     1.5260    -1.0500 hc         1 8XO       0.037700
     39 H15          2.0690     1.6040     1.0960 hc         1 8XO       0.036700
     40 H16          1.9350    -0.1360     1.2170 hc         1 8XO       0.036700
     41 H17          3.1130    -0.3570    -1.0020 hc         1 8XO       0.037200
     42 H18          3.2820     1.3840    -1.0660 hc         1 8XO       0.037200
     43 H19          4.6080     1.3140     1.0740 hc         1 8XO       0.037700
     44 H20          4.4610    -0.4300     1.0920 hc         1 8XO       0.037700
     45 H21          5.6470    -0.5380    -1.1230 hc         1 8XO       0.037700
     46 H22          5.8110     1.2040    -1.1090 hc         1 8XO       0.037700
     47 H23          7.1460     1.0500     1.0160 hc         1 8XO       0.039200
     48 H24          6.9960    -0.6940     0.9720 hc         1 8XO       0.039200
     49 H25          8.1760    -0.7310    -1.2420 hc         1 8XO       0.039200
     50 H26          8.3330     1.0120    -1.1810 hc         1 8XO       0.039200
     51 H27          9.6850     0.8120     0.9280 hc         1 8XO       0.047700
     52 H28          9.5300    -0.9360     0.8460 hc         1 8XO       0.047700
     53 H29         10.6920    -0.9170    -1.3870 h1         1 8XO       0.059700
     54 H30         10.8480     0.8300    -1.2740 h1         1 8XO       0.059700
@<TRIPOS>BOND
     1     1     2 1   
     2     1    10 2   
     3     1    26 1   
     4     2     3 1   
     5     2    11 2   
     6     3     4 2   
     7     3    27 1   
     8     4     6 1   
     9     4    28 1   
    10     5     8 1   
    11     5    10 1   
    12     5    29 1   
    13     5    30 1   
    14     6    12 1   
    15     6    31 1   
    16     6    32 1   
    17     7     8 1   
    18     8     9 1   
    19    12    13 1   
    20    12    33 1   
    21    12    34 1   
    22    13    14 1   
    23    13    35 1   
    24    13    36 1   
    25    14    15 1   
    26    14    37 1   
    27    14    38 1   
    28    15    16 1   
    29    15    39 1   
    30    15    40 1   
    31    16    17 1   
    32    16    41 1   
    33    16    42 1   
    34    17    18 1   
    35    17    43 1   
    36    17    44 1   
    37    18    19 1   
    38    18    45 1   
    39    18    46 1   
    40    19    20 1   
    41    19    47 1   
    42    19    48 1   
    43    20    21 1   
    44    20    49 1   
    45    20    50 1   
    46    21    22 1   
    47    21    51 1   
    48    21    52 1   
    49    22    23 1   
    50    22    53 1   
    51    22    54 1   
    52    23    24 1   
    53    24    25 3   
@<TRIPOS>SUBSTRUCTURE
     1 8XO         1 TEMP              0 ****  ****    0 ROOT
