@<TRIPOS>MOLECULE
8XP
   58    61     1     0     0
SMALL
bcc


@<TRIPOS>ATOM
      1 C13         -2.1030    -0.4290     1.0450 cp         1 8XP      -0.042000
      2 C18         -2.2640    -1.7120     1.5700 ca         1 8XP      -0.102000
      3 C17         -4.6490    -1.5600     1.2960 ca         1 8XP      -0.106000
      4 C16         -8.0030     0.3920    -0.6210 c3         1 8XP       0.139400
      5 C19         -3.5260    -2.2680     1.6990 ca         1 8XP      -0.137000
      6 C20         -8.6980     1.2090     0.4680 c3         1 8XP      -0.103767
      7 C21         -8.8690    -0.8200    -0.9630 c3         1 8XP      -0.103767
      8 C22         -7.7890     1.2390    -1.8770 c3         1 8XP      -0.103767
      9 C23          5.0930     0.8410    -0.3160 ca         1 8XP      -0.081800
     10 C24          3.2010    -1.8720    -0.5210 c          1 8XP       0.711300
     11 C12         -4.5070    -0.2800     0.7660 ca         1 8XP      -0.149600
     12 C27          2.8890    -4.2210     0.0590 c3         1 8XP       0.093300
     13 C1          -0.7580     0.1640     0.8950 cp         1 8XP      -0.049000
     14 C2          -0.5480     1.5220     1.1980 ca         1 8XP      -0.097000
     15 C3           0.6910     2.1220     1.0610 ca         1 8XP      -0.115000
     16 C4           1.7190     1.3140     0.6150 ca         1 8XP       0.062100
     17 C5           1.5590    -0.0350     0.3100 ca         1 8XP      -0.100800
     18 C6           0.3010    -0.6180     0.4470 ca         1 8XP      -0.080000
     19 O7           2.9950     1.6880     0.3890 os         1 8XP      -0.167200
     20 C8           3.6730     0.6070    -0.0750 cc         1 8XP       0.167900
     21 C9           2.8540    -0.4830    -0.1410 cd         1 8XP      -0.211400
     22 C10         -5.6800     0.5460     0.3270 c          1 8XP       0.682700
     23 N11         -6.7280    -0.1520    -0.1350 ns         1 8XP      -0.570900
     24 C14         -3.2380     0.2800     0.6600 ca         1 8XP      -0.068000
     25 O15         -5.6390     1.7680     0.3980 o          1 8XP      -0.605100
     26 O25          3.8890    -2.1510    -1.4940 o          1 8XP      -0.606100
     27 N26          2.6740    -2.8100     0.2800 ns         1 8XP      -0.569900
     28 C28          5.7630     0.2630    -1.3960 ca         1 8XP      -0.060000
     29 C29          7.1100     0.5090    -1.6070 ca         1 8XP      -0.182500
     30 C30          7.7800     1.3420    -0.7330 ca         1 8XP       0.156900
     31 C31          7.1470     1.9420     0.3400 ca         1 8XP      -0.182500
     32 C32          5.8010     1.6900     0.5410 ca         1 8XP      -0.060000
     33 F33          9.0820     1.5800    -0.9330 f          1 8XP      -0.138900
     34 H40         -1.3990    -2.2730     1.9020 ha         1 8XP       0.132000
     35 H39         -5.6270    -2.0040     1.4250 ha         1 8XP       0.132000
     36 H41         -3.6390    -3.2550     2.1290 ha         1 8XP       0.135000
     37 H44         -8.1440     2.1100     0.7220 hc         1 8XP       0.044700
     38 H43         -9.6870     1.5130     0.1210 hc         1 8XP       0.044700
     39 H42         -8.8260     0.6160     1.3750 hc         1 8XP       0.044700
     40 H47         -9.0570    -1.4330    -0.0790 hc         1 8XP       0.044700
     41 H45         -9.8320    -0.4970    -1.3570 hc         1 8XP       0.044700
     42 H46         -8.3940    -1.4470    -1.7200 hc         1 8XP       0.044700
     43 H48         -7.2980     0.6570    -2.6590 hc         1 8XP       0.044700
     44 H50         -8.7500     1.5810    -2.2650 hc         1 8XP       0.044700
     45 H49         -7.1820     2.1180    -1.6690 hc         1 8XP       0.044700
     46 H54          2.3110    -4.7730     0.7940 h1         1 8XP       0.040700
     47 H52          2.5570    -4.5190    -0.9340 h1         1 8XP       0.040700
     48 H53          3.9400    -4.4960     0.1680 h1         1 8XP       0.040700
     49 H34         -1.3750     2.1160     1.5650 ha         1 8XP       0.146000
     50 H35          0.8430     3.1660     1.2980 ha         1 8XP       0.155000
     51 H36          0.1390    -1.6540     0.1780 ha         1 8XP       0.144000
     52 H37         -6.5930    -1.1400    -0.2790 hn         1 8XP       0.310500
     53 H38         -3.1330     1.2730     0.2430 ha         1 8XP       0.155000
     54 H51          2.2310    -2.5300     1.1390 hn         1 8XP       0.320500
     55 H55          5.2280    -0.3730    -2.0830 ha         1 8XP       0.158500
     56 H56          7.6260     0.0640    -2.4470 ha         1 8XP       0.155000
     57 H57          7.6950     2.5910     1.0100 ha         1 8XP       0.155000
     58 H58          5.3090     2.1510     1.3870 ha         1 8XP       0.158500
@<TRIPOS>BOND
     1     1     2 ar  
     2     1    13 1   
     3     1    24 ar  
     4     2     5 ar  
     5     2    34 1   
     6     3     5 ar  
     7     3    11 ar  
     8     3    35 1   
     9     4     6 1   
    10     4     7 1   
    11     4     8 1   
    12     4    23 1   
    13     5    36 1   
    14     6    37 1   
    15     6    38 1   
    16     6    39 1   
    17     7    40 1   
    18     7    41 1   
    19     7    42 1   
    20     8    43 1   
    21     8    44 1   
    22     8    45 1   
    23     9    20 1   
    24     9    28 ar  
    25     9    32 ar  
    26    10    21 1   
    27    10    26 2   
    28    10    27 1   
    29    11    22 1   
    30    11    24 ar  
    31    12    27 1   
    32    12    46 1   
    33    12    47 1   
    34    12    48 1   
    35    13    14 ar  
    36    13    18 ar  
    37    14    15 ar  
    38    14    49 1   
    39    15    16 ar  
    40    15    50 1   
    41    16    17 ar  
    42    16    19 1   
    43    17    18 ar  
    44    17    21 1   
    45    18    51 1   
    46    19    20 1   
    47    20    21 2   
    48    22    23 1   
    49    22    25 2   
    50    23    52 1   
    51    24    53 1   
    52    27    54 1   
    53    28    29 ar  
    54    28    55 1   
    55    29    30 ar  
    56    29    56 1   
    57    30    31 ar  
    58    30    33 1   
    59    31    32 ar  
    60    31    57 1   
    61    32    58 1   
@<TRIPOS>SUBSTRUCTURE
     1 8XP         1 TEMP              0 ****  ****    0 ROOT
