@<TRIPOS>MOLECULE
8XP
   58    61     1     0     0
SMALL
No Charge or Current Charge


@<TRIPOS>ATOM
      1 C13         -2.0750    -0.4130     0.8070 cp         1 8XP      -0.042000
      2 C18         -2.2340    -1.7170     1.3320 ca         1 8XP      -0.084000
      3 C17         -4.6360    -1.6310     0.9420 ca         1 8XP      -0.088000
      4 C16         -8.2530     0.3260    -0.4290 c3         1 8XP       0.139400
      5 C19         -3.5000    -2.3170     1.3980 ca         1 8XP      -0.119000
      6 C20         -8.6230     1.5960     0.3780 c3         1 8XP      -0.103767
      7 C21         -9.2850    -0.7840    -0.1220 c3         1 8XP      -0.103767
      8 C22         -8.2700     0.6220    -1.9500 c3         1 8XP      -0.103767
      9 C23          5.2650     0.8990    -0.0980 ca         1 8XP      -0.081800
     10 C24          3.5660    -1.7210    -0.1790 c          1 8XP       0.644300
     11 C12         -4.5180    -0.3240     0.4090 ca         1 8XP      -0.149600
     12 C27          2.8960    -4.1390    -0.2810 c3         1 8XP       0.093300
     13 C1          -0.7250     0.2310     0.7360 cp         1 8XP      -0.049000
     14 C2          -0.5680     1.6260     0.9830 ca         1 8XP      -0.079000
     15 C3           0.6950     2.2450     0.9070 ca         1 8XP      -0.097000
     16 C4           1.8040     1.4550     0.5880 ca         1 8XP       0.062100
     17 C5           1.6860     0.1020     0.3570 ca         1 8XP      -0.100800
     18 C6           0.4300    -0.5360     0.4140 ca         1 8XP      -0.062000
     19 O7           3.0910     1.9270     0.4650 os         1 8XP      -0.167200
     20 C8           3.8230     0.8030     0.1120 cc         1 8XP       0.167900
     21 C9           3.0400    -0.3420     0.0640 cd         1 8XP      -0.211400
     22 C10         -5.7160     0.4570    -0.0990 c          1 8XP       0.615700
     23 N11         -6.9390    -0.1860    -0.0160 ns         1 8XP      -0.503900
     24 C14         -3.2330     0.2660     0.3510 ca         1 8XP      -0.050000
     25 O15         -5.5990     1.5870    -0.5540 o          1 8XP      -0.605100
     26 O25          4.7330    -1.9880    -0.4230 o          1 8XP      -0.606100
     27 N26          2.6240    -2.7130    -0.0880 ns         1 8XP      -0.502900
     28 C28          5.8240     0.6390    -1.3660 ca         1 8XP      -0.042000
     29 C29          7.2110     0.7630    -1.5660 ca         1 8XP      -0.164500
     30 C30          8.0380     1.1550    -0.5020 ca         1 8XP       0.192000
     31 C31          7.4880     1.4290     0.7590 ca         1 8XP      -0.164500
     32 C32          6.1010     1.3060     0.9610 ca         1 8XP      -0.042000
     33 F33          9.3690     1.2740    -0.6950 f          1 8XP      -0.174000
     34 H40         -1.3710    -2.2640     1.7050 ha         1 8XP       0.114000
     35 H39         -5.5980    -2.1320     1.0120 ha         1 8XP       0.114000
     36 H41         -3.6010    -3.3190     1.8090 ha         1 8XP       0.117000
     37 H44         -7.9540     2.4320     0.1470 hc         1 8XP       0.044700
     38 H43         -9.6450     1.9180     0.1450 hc         1 8XP       0.044700
     39 H42         -8.5660     1.4030     1.4560 hc         1 8XP       0.044700
     40 H47         -9.2960    -1.0240     0.9490 hc         1 8XP       0.044700
     41 H45        -10.2960    -0.4690    -0.4070 hc         1 8XP       0.044700
     42 H46         -9.0500    -1.7030    -0.6740 hc         1 8XP       0.044700
     43 H48         -7.9620    -0.2610    -2.5230 hc         1 8XP       0.044700
     44 H50         -9.2770     0.9050    -2.2780 hc         1 8XP       0.044700
     45 H49         -7.5970     1.4470    -2.2100 hc         1 8XP       0.044700
     46 H54          1.9670    -4.7090    -0.1580 h1         1 8XP       0.040700
     47 H52          3.2920    -4.3060    -1.2910 h1         1 8XP       0.040700
     48 H53          3.6300    -4.4790     0.4610 h1         1 8XP       0.040700
     49 H34         -1.4320     2.2310     1.2430 ha         1 8XP       0.128000
     50 H35          0.8080     3.3100     1.0910 ha         1 8XP       0.137000
     51 H36          0.3090    -1.5900     0.1920 ha         1 8XP       0.126000
     52 H37         -6.9140    -1.1170     0.3770 hn         1 8XP       0.310500
     53 H38         -3.1240     1.2630    -0.0680 ha         1 8XP       0.137000
     54 H51          1.6910    -2.4260     0.1610 hn         1 8XP       0.320500
     55 H55          5.1830     0.3400    -2.1930 ha         1 8XP       0.140500
     56 H56          7.6440     0.5580    -2.5410 ha         1 8XP       0.137000
     57 H57          8.1340     1.7380     1.5770 ha         1 8XP       0.137000
     58 H58          5.6740     1.5240     1.9380 ha         1 8XP       0.140500
@<TRIPOS>BOND
     1     1     2 ar  
     2     1    13 1   
     3     1    24 ar  
     4     2     5 ar  
     5     2    34 1   
     6     3     5 ar  
     7     3    11 ar  
     8     3    35 1   
     9     4     6 1   
    10     4     7 1   
    11     4     8 1   
    12     4    23 1   
    13     5    36 1   
    14     6    37 1   
    15     6    38 1   
    16     6    39 1   
    17     7    40 1   
    18     7    41 1   
    19     7    42 1   
    20     8    43 1   
    21     8    44 1   
    22     8    45 1   
    23     9    20 1   
    24     9    28 ar  
    25     9    32 ar  
    26    10    21 1   
    27    10    26 2   
    28    10    27 1   
    29    11    22 1   
    30    11    24 ar  
    31    12    27 1   
    32    12    46 1   
    33    12    47 1   
    34    12    48 1   
    35    13    14 ar  
    36    13    18 ar  
    37    14    15 ar  
    38    14    49 1   
    39    15    16 ar  
    40    15    50 1   
    41    16    17 ar  
    42    16    19 1   
    43    17    18 ar  
    44    17    21 1   
    45    18    51 1   
    46    19    20 1   
    47    20    21 2   
    48    22    23 1   
    49    22    25 2   
    50    23    52 1   
    51    24    53 1   
    52    27    54 1   
    53    28    29 ar  
    54    28    55 1   
    55    29    30 ar  
    56    29    56 1   
    57    30    31 ar  
    58    30    33 1   
    59    31    32 ar  
    60    31    57 1   
    61    32    58 1   
@<TRIPOS>SUBSTRUCTURE
     1 8XP         1 TEMP              0 ****  ****    0 ROOT
