@<TRIPOS>MOLECULE
8XQ
   20    21     1     0     0
SMALL
No Charge or Current Charge


@<TRIPOS>ATOM
      1 OAA          3.1940    -0.3240    -0.9510 o          1 8XQ      -0.719000
      2 OAB          2.9240     0.7520     0.8960 o          1 8XQ      -0.719000
      3 CAD         -0.9200     2.7680    -0.1070 ca         1 8XQ      -0.207000
      4 CAE         -2.2060     2.2230    -0.0270 ca         1 8XQ       0.318900
      5 CAF         -0.4990    -2.2610     0.1630 ca         1 8XQ      -0.219000
      6 CAG          0.8140    -1.7770     0.0980 ca         1 8XQ      -0.076000
      7 CAH          0.1880     1.9100    -0.0900 ca         1 8XQ      -0.033000
      8 NAI         -2.4310     0.8960     0.0600 nb         1 8XQ      -0.664000
      9 CAJ          2.5020     0.0650    -0.0220 c          1 8XQ       0.718600
     10 CAK         -1.5830    -1.3710     0.1550 ca         1 8XQ       0.122100
     11 CAL          1.0660    -0.3940     0.0280 ca         1 8XQ      -0.136600
     12 CAM         -0.0260     0.5150     0.0090 ca         1 8XQ      -0.024000
     13 CAN         -1.3700     0.0370     0.0760 ca         1 8XQ       0.226000
     14 HOAC        -2.7660    -2.8790     0.2680 ho         1 8XQ       0.439000
     15 HAD         -0.7880     3.8440    -0.1810 ha         1 8XQ       0.103000
     16 HAE         -3.0860     2.8650    -0.0370 h4         1 8XQ      -0.006900
     17 HAF         -0.6680    -3.3340     0.2200 ha         1 8XQ       0.091000
     18 HAG          1.6470    -2.4790     0.1080 ha         1 8XQ       0.132000
     19 HAH          1.1870     2.3340    -0.1590 ha         1 8XQ       0.170000
     20 OAC         -2.8470    -1.9030     0.2220 oh         1 8XQ      -0.517100
@<TRIPOS>BOND
     1     1     9 1   
     2     2     9 1   
     3     3     4 ar  
     4     3     7 ar  
     5     3    15 1   
     6     4     8 ar  
     7     4    16 1   
     8     5     6 ar  
     9     5    10 ar  
    10     5    17 1   
    11     6    11 ar  
    12     6    18 1   
    13     7    12 ar  
    14     7    19 1   
    15     8    13 ar  
    16     9    11 1   
    17    10    13 ar  
    18    10    20 1   
    19    11    12 ar  
    20    12    13 ar  
    21    14    20 1   
@<TRIPOS>SUBSTRUCTURE
     1 8XQ         1 TEMP              0 ****  ****    0 ROOT
