@<TRIPOS>MOLECULE
8XQ
   20    21     1     0     0
SMALL
bcc


@<TRIPOS>ATOM
      1 OAA          3.3900    -0.8780    -0.3550 o          1 8XQ      -0.824300
      2 OAB          2.8800     1.1800     0.3020 o          1 8XQ      -0.824300
      3 CAD         -0.9650     2.7320    -0.0460 ca         1 8XQ      -0.290300
      4 CAE         -2.2340     2.1320     0.0330 ca         1 8XQ       0.384200
      5 CAF         -0.4950    -2.2280     0.1030 ca         1 8XQ      -0.237000
      6 CAG          0.8150    -1.7320     0.0280 ca         1 8XQ      -0.094000
      7 CAH          0.1460     1.9350    -0.0490 ca         1 8XQ      -0.051000
      8 NAI         -2.4090     0.8410     0.0930 nb         1 8XQ      -0.664000
      9 CAJ          2.5850     0.0130    -0.0250 c          1 8XQ       0.929200
     10 CAK         -1.5610    -1.3670     0.1360 ca         1 8XQ       0.056800
     11 CAL          1.1110    -0.3900     0.0020 ca         1 8XQ      -0.136600
     12 CAM          0.0130     0.5240     0.0250 ca         1 8XQ      -0.089300
     13 CAN         -1.3230     0.0380     0.0850 ca         1 8XQ       0.356600
     14 HOAC        -2.8820    -2.7270     0.2240 ho         1 8XQ       0.400000
     15 HAD         -0.8790     3.8080    -0.1030 ha         1 8XQ       0.121000
     16 HAE         -3.1260     2.7510     0.0410 h4         1 8XQ      -0.006900
     17 HAF         -0.6570    -3.3000     0.1340 ha         1 8XQ       0.109000
     18 HAG          1.6260    -2.4460    -0.0030 ha         1 8XQ       0.150000
     19 HAH          1.1340     2.3630    -0.1020 ha         1 8XQ       0.188000
     20 OAC         -2.8390    -1.7640     0.2060 oh         1 8XQ      -0.478100
@<TRIPOS>BOND
     1     1     9 1   
     2     2     9 1   
     3     3     4 ar  
     4     3     7 ar  
     5     3    15 1   
     6     4     8 ar  
     7     4    16 1   
     8     5     6 ar  
     9     5    10 ar  
    10     5    17 1   
    11     6    11 ar  
    12     6    18 1   
    13     7    12 ar  
    14     7    19 1   
    15     8    13 ar  
    16     9    11 1   
    17    10    13 ar  
    18    10    20 1   
    19    11    12 ar  
    20    12    13 ar  
    21    14    20 1   
@<TRIPOS>SUBSTRUCTURE
     1 8XQ         1 TEMP              0 ****  ****    0 ROOT
