@<TRIPOS>MOLECULE
8XR
   58    61     1     0     0
SMALL
No Charge or Current Charge


@<TRIPOS>ATOM
      1 C13          5.3440     0.6600     1.8480 c3         1 8XR      -0.081100
      2 C17         -4.3800    -0.1030     0.1650 ca         1 8XR      -0.039000
      3 C20         -6.6450    -0.8800    -0.3310 ca         1 8XR      -0.096000
      4 C21         -7.1890     0.2650     0.2760 ca         1 8XR      -0.083300
      5 C22         -6.3270     1.2250     0.8300 ca         1 8XR      -0.098000
      6 C24          4.3090     1.2590    -1.5100 c5         1 8XR      -0.097900
      7 C26          3.2740     3.4630    -1.9880 c5         1 8XR      -0.078900
      8 C01         -0.3830    -1.5540    -0.1920 ca         1 8XR      -0.068000
      9 C02         -0.5190    -0.1990     0.1900 ca         1 8XR      -0.174600
     10 C03          0.6550     0.5440     0.4440 ca         1 8XR      -0.026000
     11 C04          1.9350    -0.0180     0.2700 ca         1 8XR       0.200000
     12 C05          2.0610    -1.3720    -0.1480 ca         1 8XR      -0.032000
     13 C06          0.8880    -2.1360    -0.3220 ca         1 8XR      -0.154000
     14 N07          3.1110     0.7210     0.5870 nh         1 8XR      -0.761400
     15 C08          4.0780    -0.1160     1.3750 c6         1 8XR       0.131500
     16 C09          4.4310    -1.4500     0.6410 c          1 8XR       0.534000
     17 N10          3.3570    -2.0240    -0.0870 n          1 8XR      -0.220400
     18 O11          5.5510    -1.9540     0.6750 o          1 8XR      -0.530000
     19 C12          3.5990    -3.2550    -0.8740 c3         1 8XR       0.079300
     20 C14          3.6040     1.8660    -0.2660 c5         1 8XR       0.197500
     21 N16         -2.9750    -0.3350     0.0950 ns         1 8XR      -0.157000
     22 O18         -1.9580     1.6360     0.7210 o          1 8XR      -0.579100
     23 C19         -5.2500    -1.0740    -0.3880 ca         1 8XR      -0.103300
     24 C23         -4.9350     1.0430     0.7790 ca         1 8XR      -0.099000
     25 C25          4.3900     2.4810    -2.4770 c5         1 8XR      -0.078900
     26 C27          2.4500     2.6190    -0.9810 c5         1 8XR      -0.097900
     27 C29         -8.6960     0.4640     0.3290 c3         1 8XR      -0.043800
     28 H1           5.0680     1.5740     2.3860 hc         1 8XR       0.052033
     29 H2           5.9420     0.0490     2.5350 hc         1 8XR       0.052033
     30 H3           5.9930     0.9390     1.0110 hc         1 8XR       0.052033
     31 H4          -7.3130    -1.6240    -0.7610 ha         1 8XR       0.110000
     32 H5          -6.7340     2.1150     1.3050 ha         1 8XR       0.115000
     33 H6           5.2980     0.8480    -1.2810 hc         1 8XR       0.051700
     34 H7           3.7200     0.4500    -1.9590 hc         1 8XR       0.051700
     35 H8           3.7140     4.3390    -1.4970 hc         1 8XR       0.043450
     36 H9           2.6580     3.8370    -2.8140 hc         1 8XR       0.043450
     37 H10         -4.1330    -2.9420    -0.3420 hc         1 8XR       0.041033
     38 H11         -5.5030    -2.9650    -1.4560 hc         1 8XR       0.041033
     39 H12         -4.0380    -2.0810    -1.8910 hc         1 8XR       0.041033
     40 H13         -1.2530    -2.1850    -0.3630 ha         1 8XR       0.115000
     41 H14          0.5820     1.5680     0.7970 ha         1 8XR       0.150000
     42 H15          0.9470    -3.1960    -0.5550 ha         1 8XR       0.123000
     43 H19          2.9370    -3.2790    -1.7480 h1         1 8XR       0.050367
     44 H20          4.6350    -3.2860    -1.2350 h1         1 8XR       0.050367
     45 H21          3.4080    -4.1350    -0.2480 h1         1 8XR       0.050367
     46 H22          4.2490     2.5640     0.2870 h1         1 8XR       0.065700
     47 H23         -2.7380    -1.2670    -0.2160 hn         1 8XR       0.154000
     48 H24         -4.3070     1.8030     1.2320 ha         1 8XR       0.130000
     49 H25          5.3750     2.9610    -2.4350 hc         1 8XR       0.043450
     50 H26          4.2340     2.1710    -3.5170 hc         1 8XR       0.043450
     51 H27          1.8650     3.2450    -0.2990 hc         1 8XR       0.051700
     52 H28          1.7610     1.9580    -1.5190 hc         1 8XR       0.051700
     53 H29         -9.2230    -0.4950     0.4030 hc         1 8XR       0.041700
     54 H30         -8.9910     1.0680     1.1950 hc         1 8XR       0.041700
     55 H31         -9.0540     0.9740    -0.5730 hc         1 8XR       0.041700
     56 H16          3.5640    -0.4420     2.2920 h1         1 8XR       0.083700
     57 C15         -1.8710     0.4650     0.3690 c          1 8XR       0.620700
     58 C28         -4.7020    -2.3330    -1.0550 c3         1 8XR      -0.045800
@<TRIPOS>BOND
     1     1    15 1   
     2     1    28 1   
     3     1    29 1   
     4     1    30 1   
     5     2    21 1   
     6     2    23 ar  
     7     2    24 ar  
     8     3     4 ar  
     9     3    23 ar  
    10     3    31 1   
    11     4     5 ar  
    12     4    27 1   
    13     5    24 ar  
    14     5    32 1   
    15     6    20 1   
    16     6    25 1   
    17     6    33 1   
    18     6    34 1   
    19     7    25 1   
    20     7    26 1   
    21     7    35 1   
    22     7    36 1   
    23     8     9 ar  
    24     8    13 ar  
    25     8    40 1   
    26     9    10 ar  
    27     9    57 1   
    28    10    11 ar  
    29    10    41 1   
    30    11    12 ar  
    31    11    14 1   
    32    12    13 ar  
    33    12    17 1   
    34    13    42 1   
    35    14    15 1   
    36    14    20 1   
    37    15    16 1   
    38    15    56 1   
    39    16    17 1   
    40    16    18 2   
    41    17    19 1   
    42    19    43 1   
    43    19    44 1   
    44    19    45 1   
    45    20    26 1   
    46    20    46 1   
    47    21    47 1   
    48    21    57 1   
    49    22    57 2   
    50    23    58 1   
    51    24    48 1   
    52    25    49 1   
    53    25    50 1   
    54    26    51 1   
    55    26    52 1   
    56    27    53 1   
    57    27    54 1   
    58    27    55 1   
    59    37    58 1   
    60    38    58 1   
    61    39    58 1   
@<TRIPOS>SUBSTRUCTURE
     1 8XR         1 TEMP              0 ****  ****    0 ROOT
