@<TRIPOS>MOLECULE
8XR
   58    61     1     0     0
SMALL
abcg2


@<TRIPOS>ATOM
      1 C13          5.2750     1.1720     1.5950 c3         1 8XR      -0.081100
      2 C17         -4.2160    -0.3400     0.2670 ca         1 8XR      -0.039000
      3 C20         -6.3110    -0.1310    -0.8770 ca         1 8XR      -0.096000
      4 C21         -6.9470     0.2950     0.2850 ca         1 8XR      -0.083300
      5 C22         -6.1840     0.3950     1.4450 ca         1 8XR      -0.098000
      6 C24          3.9100     0.8580    -1.7210 c5         1 8XR      -0.097900
      7 C26          2.7750     2.9150    -2.4580 c5         1 8XR      -0.078900
      8 C01         -0.2200    -1.8430     0.5230 ca         1 8XR      -0.068000
      9 C02         -0.4820    -0.4800     0.6450 ca         1 8XR      -0.174600
     10 C03          0.5910     0.4030     0.7130 ca         1 8XR      -0.026000
     11 C04          1.8990    -0.0390     0.5970 ca         1 8XR       0.200000
     12 C05          2.1500    -1.4130     0.4610 ca         1 8XR      -0.032000
     13 C06          1.0820    -2.3070     0.4460 ca         1 8XR      -0.154000
     14 N07          2.9820     0.8540     0.6690 nh         1 8XR      -0.761400
     15 C08          4.0910     0.2440     1.3900 c6         1 8XR       0.131500
     16 C09          4.5110    -1.0810     0.7650 c          1 8XR       0.534000
     17 N10          3.4690    -1.8470     0.3170 n          1 8XR      -0.220400
     18 O11          5.6670    -1.4500     0.6920 o          1 8XR      -0.530000
     19 C12          3.7290    -3.1710    -0.2210 c3         1 8XR       0.079300
     20 C14          3.3100     1.6210    -0.5320 c5         1 8XR       0.197500
     21 N16         -2.8500    -0.6820     0.2530 ns         1 8XR      -0.157000
     22 O18         -2.0550     1.1660     1.2940 o          1 8XR      -0.579100
     23 C19         -4.9550    -0.4460    -0.9160 ca         1 8XR      -0.103300
     24 C23         -4.8370     0.0740     1.4410 ca         1 8XR      -0.099000
     25 C25          3.7880     1.8350    -2.9040 c5         1 8XR      -0.078900
     26 C27          2.1460     2.3710    -1.1770 c5         1 8XR      -0.097900
     27 C29         -8.4150     0.6050     0.2910 c3         1 8XR      -0.043800
     28 H1           4.9350     2.1200     2.0110 hc         1 8XR       0.052033
     29 H2           5.9710     0.7290     2.3050 hc         1 8XR       0.052033
     30 H3           5.8240     1.3720     0.6760 hc         1 8XR       0.052033
     31 H4          -6.8860    -0.2110    -1.7930 ha         1 8XR       0.110000
     32 H5          -6.6470     0.7210     2.3690 ha         1 8XR       0.115000
     33 H6           4.9400     0.5410    -1.5470 hc         1 8XR       0.051700
     34 H7           3.3210    -0.0440    -1.9140 hc         1 8XR       0.051700
     35 H8           3.2900     3.8540    -2.2480 hc         1 8XR       0.043450
     36 H9           2.0280     3.1280    -3.2230 hc         1 8XR       0.043450
     37 H10         -3.9480    -1.9140    -2.1430 hc         1 8XR       0.041033
     38 H11         -5.0180    -0.8360    -3.0230 hc         1 8XR       0.041033
     39 H12         -3.4540    -0.2580    -2.4550 hc         1 8XR       0.041033
     40 H13         -1.0200    -2.5720     0.5220 ha         1 8XR       0.115000
     41 H14          0.4140     1.4610     0.8530 ha         1 8XR       0.150000
     42 H15          1.2510    -3.3720     0.3740 ha         1 8XR       0.123000
     43 H19          3.0810    -3.3570    -1.0750 h1         1 8XR       0.050367
     44 H20          4.7600    -3.2290    -0.5520 h1         1 8XR       0.050367
     45 H21          3.5590    -3.9480     0.5250 h1         1 8XR       0.050367
     46 H22          4.0290     2.3840    -0.2190 h1         1 8XR       0.065700
     47 H23         -2.5880    -1.4720    -0.3160 hn         1 8XR       0.154000
     48 H24         -4.2720     0.1360     2.3610 ha         1 8XR       0.130000
     49 H25          4.7520     2.2840    -3.1470 hc         1 8XR       0.043450
     50 H26          3.4520     1.3180    -3.8030 hc         1 8XR       0.043450
     51 H27          1.7320     3.1490    -0.5330 hc         1 8XR       0.051700
     52 H28          1.3380     1.6790    -1.4260 hc         1 8XR       0.051700
     53 H29         -8.9990    -0.2720     0.5790 hc         1 8XR       0.041700
     54 H30         -8.6550     1.3970     1.0000 hc         1 8XR       0.041700
     55 H31         -8.7630     0.9160    -0.6940 hc         1 8XR       0.041700
     56 H16          3.7030    -0.0090     2.3860 h1         1 8XR       0.083700
     57 C15         -1.8560     0.0830     0.7700 c          1 8XR       0.620700
     58 C28         -4.3100    -0.8840    -2.1970 c3         1 8XR      -0.045800
@<TRIPOS>BOND
     1     1    15 1   
     2     1    28 1   
     3     1    29 1   
     4     1    30 1   
     5     2    21 1   
     6     2    23 ar  
     7     2    24 ar  
     8     3     4 ar  
     9     3    23 ar  
    10     3    31 1   
    11     4     5 ar  
    12     4    27 1   
    13     5    24 ar  
    14     5    32 1   
    15     6    20 1   
    16     6    25 1   
    17     6    33 1   
    18     6    34 1   
    19     7    25 1   
    20     7    26 1   
    21     7    35 1   
    22     7    36 1   
    23     8     9 ar  
    24     8    13 ar  
    25     8    40 1   
    26     9    10 ar  
    27     9    57 1   
    28    10    11 ar  
    29    10    41 1   
    30    11    12 ar  
    31    11    14 1   
    32    12    13 ar  
    33    12    17 1   
    34    13    42 1   
    35    14    15 1   
    36    14    20 1   
    37    15    16 1   
    38    15    56 1   
    39    16    17 1   
    40    16    18 2   
    41    17    19 1   
    42    19    43 1   
    43    19    44 1   
    44    19    45 1   
    45    20    26 1   
    46    20    46 1   
    47    21    47 1   
    48    21    57 1   
    49    22    57 2   
    50    23    58 1   
    51    24    48 1   
    52    25    49 1   
    53    25    50 1   
    54    26    51 1   
    55    26    52 1   
    56    27    53 1   
    57    27    54 1   
    58    27    55 1   
    59    37    58 1   
    60    38    58 1   
    61    39    58 1   
@<TRIPOS>SUBSTRUCTURE
     1 8XR         1 TEMP              0 ****  ****    0 ROOT
