@<TRIPOS>MOLECULE
8XS
   44    47     1     0     0
SMALL
bcc


@<TRIPOS>ATOM
      1 C13          4.5740    -0.5160    -0.4700 ca         1 8XS      -0.086000
      2 C17          1.9360    -1.7050     0.3380 ca         1 8XS      -0.087000
      3 C19         -4.5050    -1.5170     0.8210 ca         1 8XS      -0.075000
      4 C20         -4.5690     0.2200    -0.8430 ca         1 8XS      -0.075000
      5 C22         -6.5800    -0.8190    -0.1120 ca         1 8XS       0.139900
      6 C23         -5.8830    -1.6390     0.7550 ca         1 8XS      -0.179000
      7 C24         -5.9470     0.1100    -0.9160 ca         1 8XS      -0.179000
      8 C11          5.8830    -0.0490    -0.5000 ca         1 8XS      -0.139600
      9 C12          3.5570     0.1910     0.1720 cp         1 8XS      -0.094000
     10 C27          3.8760     1.3980     0.7950 ca         1 8XS      -0.136000
     11 C1          -1.5240     0.5900     0.0220 cc         1 8XS      -0.179400
     12 C2          -2.3810    -0.4660     0.1000 cd         1 8XS       0.094900
     13 C3          -0.1980     0.0330     0.0920 ca         1 8XS      -0.091800
     14 O4          -1.7030    -1.6320     0.2390 os         1 8XS      -0.171200
     15 C5          -0.3830    -1.3390     0.2410 ca         1 8XS       0.045100
     16 C6          -1.8060     2.0380    -0.0970 c          1 8XS       0.700300
     17 C7           1.0960     0.5490     0.0670 ca         1 8XS      -0.073000
     18 C8           6.9720    -0.8440    -1.2130 c          1 8XS       0.924200
     19 C9           2.1710    -0.3240     0.1920 cp         1 8XS      -0.008000
     20 C10         -3.8330    -0.5830     0.0300 ca         1 8XS      -0.055800
     21 C14          0.6590    -2.2380     0.3650 ca         1 8XS      -0.138000
     22 O15         -1.1040     2.7560    -0.7990 o          1 8XS      -0.590100
     23 O16          6.6220    -1.9120    -1.7510 o          1 8XS      -0.824300
     24 N18         -2.8360     2.5030     0.6210 ns         1 8XS      -0.578900
     25 O21          8.1180    -0.3580    -1.1950 o          1 8XS      -0.824300
     26 C26          6.1760     1.1590     0.1270 ca         1 8XS      -0.091000
     27 C28          5.1780     1.8770     0.7700 ca         1 8XS      -0.168000
     28 C29         -3.2460     3.8870     0.5790 c3         1 8XS       0.098300
     29 H31          4.3430    -1.4460    -0.9760 ha         1 8XS       0.147000
     30 H33          2.7770    -2.3760     0.4520 ha         1 8XS       0.153000
     31 H35         -3.9590    -2.1510     1.5060 ha         1 8XS       0.151000
     32 H36         -4.0680     0.9230    -1.4950 ha         1 8XS       0.151000
     33 H38         -6.4060    -2.3590     1.3700 ha         1 8XS       0.150000
     34 H39         -6.5160     0.7260    -1.5990 ha         1 8XS       0.150000
     35 H41          3.1110     1.9560     1.3210 ha         1 8XS       0.105000
     36 H30          1.2590     1.6090    -0.0720 ha         1 8XS       0.159000
     37 H32          0.4920    -3.3000     0.4860 ha         1 8XS       0.142000
     38 H34         -3.3150     1.8850     1.2530 hn         1 8XS       0.318500
     39 H40          7.1910     1.5360     0.1140 ha         1 8XS       0.146000
     40 H42          5.4140     2.8120     1.2620 ha         1 8XS       0.106000
     41 H44         -4.1220     4.0020     1.2090 h1         1 8XS       0.036367
     42 H45         -2.4640     4.5520     0.9480 h1         1 8XS       0.036367
     43 H43         -3.5080     4.1940    -0.4340 h1         1 8XS       0.036367
     44 F25         -7.9120    -0.9350    -0.1830 f          1 8XS      -0.145900
@<TRIPOS>BOND
     1     1     8 ar  
     2     1     9 ar  
     3     1    29 1   
     4     2    19 ar  
     5     2    21 ar  
     6     2    30 1   
     7     3     6 ar  
     8     3    20 ar  
     9     3    31 1   
    10     4     7 ar  
    11     4    20 ar  
    12     4    32 1   
    13     5     6 ar  
    14     5     7 ar  
    15     5    44 1   
    16     6    33 1   
    17     7    34 1   
    18     8    18 1   
    19     8    26 ar  
    20     9    10 ar  
    21     9    19 1   
    22    10    27 ar  
    23    10    35 1   
    24    11    12 2   
    25    11    13 1   
    26    11    16 1   
    27    12    14 1   
    28    12    20 1   
    29    13    15 ar  
    30    13    17 ar  
    31    14    15 1   
    32    15    21 ar  
    33    16    22 2   
    34    16    24 1   
    35    17    19 ar  
    36    17    36 1   
    37    18    23 1   
    38    18    25 1   
    39    21    37 1   
    40    24    28 1   
    41    24    38 1   
    42    26    27 ar  
    43    26    39 1   
    44    27    40 1   
    45    28    41 1   
    46    28    42 1   
    47    28    43 1   
@<TRIPOS>SUBSTRUCTURE
     1 8XS         1 TEMP              0 ****  ****    0 ROOT
