@<TRIPOS>MOLECULE
8XS
   44    47     1     0     0
SMALL
No Charge or Current Charge


@<TRIPOS>ATOM
      1 C13          4.6270    -0.5800    -0.5290 ca         1 8XS      -0.068000
      2 C17          1.9770    -1.7370     0.4660 ca         1 8XS      -0.069000
      3 C19         -4.5850    -1.5240     0.8190 ca         1 8XS      -0.057000
      4 C20         -4.4710     0.3020    -0.7820 ca         1 8XS      -0.057000
      5 C22         -6.5760    -0.8540    -0.4030 ca         1 8XS       0.175000
      6 C23         -5.9520    -1.6890     0.5340 ca         1 8XS      -0.161000
      7 C24         -5.8380     0.1350    -1.0670 ca         1 8XS      -0.161000
      8 C11          5.9550    -0.1080    -0.6640 ca         1 8XS      -0.139600
      9 C12          3.6300     0.1730     0.1420 cp         1 8XS      -0.094000
     10 C27          3.9980     1.4290     0.6820 ca         1 8XS      -0.118000
     11 C1          -1.4880     0.6780     0.3290 cc         1 8XS      -0.179400
     12 C2          -2.3950    -0.3760     0.4930 cd         1 8XS       0.094900
     13 C3          -0.1800     0.0290     0.3460 ca         1 8XS      -0.091800
     14 O4          -1.7150    -1.5620     0.6270 os         1 8XS      -0.171200
     15 C5          -0.3840    -1.3160     0.5280 ca         1 8XS       0.045100
     16 C6          -1.7570     2.1370     0.2400 c          1 8XS       0.633300
     17 C7           1.1180     0.5470     0.2180 ca         1 8XS      -0.055000
     18 C8           7.0050    -0.9330    -1.3920 c          1 8XS       0.713600
     19 C9           2.2290    -0.3430     0.2760 cp         1 8XS      -0.008000
     20 C10         -3.8340    -0.5100     0.1840 ca         1 8XS      -0.055800
     21 C14          0.6630    -2.2360     0.5950 ca         1 8XS      -0.120000
     22 O15         -0.9100     2.9700    -0.0500 o          1 8XS      -0.590100
     23 O16          6.6840    -2.0230    -1.8440 o          1 8XS      -0.719000
     24 N18         -3.0360     2.5090     0.5790 ns         1 8XS      -0.511900
     25 O21          8.1350    -0.4790    -1.4990 o          1 8XS      -0.719000
     26 C26          6.2820     1.1510    -0.1100 ca         1 8XS      -0.073000
     27 C28          5.3090     1.9110     0.5580 ca         1 8XS      -0.150000
     28 C29         -3.5260     3.8880     0.5830 c3         1 8XS       0.098300
     29 H31          4.3590    -1.5400    -0.9650 ha         1 8XS       0.129000
     30 H33          2.8090    -2.4340     0.5290 ha         1 8XS       0.135000
     31 H35         -4.1110    -2.1770     1.5490 ha         1 8XS       0.133000
     32 H36         -3.9050     1.0390    -1.3470 ha         1 8XS       0.133000
     33 H38         -6.5260    -2.4630     1.0370 ha         1 8XS       0.132000
     34 H39         -6.3220     0.7630    -1.8110 ha         1 8XS       0.132000
     35 H41          3.2650     2.0300     1.2150 ha         1 8XS       0.087000
     36 H30          1.2740     1.6110     0.0630 ha         1 8XS       0.141000
     37 H32          0.4720    -3.2960     0.7440 ha         1 8XS       0.124000
     38 H34         -3.6670     1.7670     0.8560 hn         1 8XS       0.318500
     39 H40          7.2930     1.5440    -0.1940 ha         1 8XS       0.128000
     40 H42          5.5740     2.8760     0.9830 ha         1 8XS       0.088000
     41 H44         -4.5850     3.8990     0.8710 h1         1 8XS       0.036367
     42 H45         -2.9490     4.4830     1.3020 h1         1 8XS       0.036367
     43 H43         -3.4190     4.3210    -0.4200 h1         1 8XS       0.036367
     44 F25         -7.8880    -1.0150    -0.6790 f          1 8XS      -0.181000
@<TRIPOS>BOND
     1     1     8 ar  
     2     1     9 ar  
     3     1    29 1   
     4     2    19 ar  
     5     2    21 ar  
     6     2    30 1   
     7     3     6 ar  
     8     3    20 ar  
     9     3    31 1   
    10     4     7 ar  
    11     4    20 ar  
    12     4    32 1   
    13     5     6 ar  
    14     5     7 ar  
    15     5    44 1   
    16     6    33 1   
    17     7    34 1   
    18     8    18 1   
    19     8    26 ar  
    20     9    10 ar  
    21     9    19 1   
    22    10    27 ar  
    23    10    35 1   
    24    11    12 2   
    25    11    13 1   
    26    11    16 1   
    27    12    14 1   
    28    12    20 1   
    29    13    15 ar  
    30    13    17 ar  
    31    14    15 1   
    32    15    21 ar  
    33    16    22 2   
    34    16    24 1   
    35    17    19 ar  
    36    17    36 1   
    37    18    23 1   
    38    18    25 1   
    39    21    37 1   
    40    24    28 1   
    41    24    38 1   
    42    26    27 ar  
    43    26    39 1   
    44    27    40 1   
    45    28    41 1   
    46    28    42 1   
    47    28    43 1   
@<TRIPOS>SUBSTRUCTURE
     1 8XS         1 TEMP              0 ****  ****    0 ROOT
