@<TRIPOS>MOLECULE
8XT
   41    43     1     0     0
SMALL
No Charge or Current Charge


@<TRIPOS>ATOM
      1 C1           6.8290    -0.3970     0.0700 c3         1 8XT      -0.111100
      2 C2           5.5850    -1.2940    -0.0380 c3         1 8XT       0.100000
      3 C3           3.0890    -1.0450    -0.0940 c          1 8XT       0.632300
      4 C7          -1.5210     1.0800    -0.0880 ca         1 8XT       0.397000
      5 C8          -2.5540    -0.9590     0.9670 c6         1 8XT       0.180500
      6 C9          -3.3160    -0.2990     2.1480 c3         1 8XT      -0.117100
      7 C10         -3.2230    -2.2980     0.5150 c6         1 8XT       0.149600
      8 C11         -4.2920    -1.2460    -1.3650 c6         1 8XT       0.147600
      9 C12         -3.6750     0.1390    -1.0060 c6         1 8XT       0.160800
     10 C13         -1.9460     2.4130    -0.0330 ca         1 8XT      -0.282000
     11 C14         -0.9860     3.4340     0.0660 ca         1 8XT       0.397900
     12 C15          0.7390     1.9160     0.0480 ca         1 8XT       0.398500
     13 N1           4.3530    -0.5070    -0.0150 ns         1 8XT      -0.508900
     14 O1           2.8970    -2.2490    -0.1920 o          1 8XT      -0.590100
     15 C4           2.0010    -0.0290    -0.0480 cc         1 8XT      -0.159300
     16 C5           0.6510    -0.3350    -0.1170 cd         1 8XT      -0.139200
     17 N4           2.0160     1.3880     0.0580 na         1 8XT      -0.319400
     18 C6          -0.1410     0.8710    -0.0490 ca         1 8XT      -0.188800
     19 N2          -2.4360     0.0100    -0.1710 nh         1 8XT      -0.786400
     20 N3           0.3480     3.1990     0.1080 nb         1 8XT      -0.713000
     21 O2          -4.4700    -2.0530    -0.1780 os         1 8XT      -0.442000
     22 H1           6.8170     0.1710     1.0070 hc         1 8XT       0.042367
     23 H2           7.7390    -1.0080     0.0500 hc         1 8XT       0.042367
     24 H3           6.8710     0.3090    -0.7670 hc         1 8XT       0.042367
     25 H4           5.6250    -1.8660    -0.9750 h1         1 8XT       0.054200
     26 H5           5.5710    -2.0040     0.8000 h1         1 8XT       0.054200
     27 H6          -1.5510    -1.2130     1.3410 h1         1 8XT       0.073700
     28 H7          -3.3720    -0.9790     3.0060 hc         1 8XT       0.045367
     29 H8          -2.8110     0.6140     2.4860 hc         1 8XT       0.045367
     30 H9          -4.3420    -0.0310     1.8700 hc         1 8XT       0.045367
     31 H10         -2.5420    -2.8410    -0.1560 h1         1 8XT       0.056700
     32 H11         -3.4140    -2.9380     1.3880 h1         1 8XT       0.056700
     33 H12         -5.2650    -1.1050    -1.8560 h1         1 8XT       0.054200
     34 H13         -3.6310    -1.7770    -2.0660 h1         1 8XT       0.054200
     35 H14         -3.4460     0.6690    -1.9420 h1         1 8XT       0.049200
     36 H15         -4.4310     0.7330    -0.4720 h1         1 8XT       0.049200
     37 H16         -3.0000     2.6650    -0.0490 ha         1 8XT       0.121000
     38 H17         -1.2950     4.4780     0.1170 h4         1 8XT       0.016100
     39 H18          4.4200     0.4980     0.0650 hn         1 8XT       0.309500
     40 H19          0.2520    -1.3410    -0.2250 ha         1 8XT       0.219000
     41 H20          2.8390     1.9710     0.1280 hn         1 8XT       0.359000
@<TRIPOS>BOND
     1     1     2 1   
     2     1    22 1   
     3     1    23 1   
     4     1    24 1   
     5     2    13 1   
     6     2    25 1   
     7     2    26 1   
     8     3    13 1   
     9     3    14 2   
    10     3    15 1   
    11     4    10 ar  
    12     4    18 ar  
    13     4    19 1   
    14     5     6 1   
    15     5     7 1   
    16     5    19 1   
    17     5    27 1   
    18     6    28 1   
    19     6    29 1   
    20     6    30 1   
    21     7    21 1   
    22     7    31 1   
    23     7    32 1   
    24     8     9 1   
    25     8    21 1   
    26     8    33 1   
    27     8    34 1   
    28     9    19 1   
    29     9    35 1   
    30     9    36 1   
    31    10    11 ar  
    32    10    37 1   
    33    11    20 ar  
    34    11    38 1   
    35    12    17 1   
    36    12    18 ar  
    37    12    20 ar  
    38    13    39 1   
    39    15    16 2   
    40    15    17 1   
    41    16    18 1   
    42    16    40 1   
    43    17    41 1   
@<TRIPOS>SUBSTRUCTURE
     1 8XT         1 TEMP              0 ****  ****    0 ROOT
