@<TRIPOS>MOLECULE
8XT
   41    43     1     0     0
SMALL
abcg2


@<TRIPOS>ATOM
      1 C1           6.7050    -0.2120     0.3850 c3         1 8XT      -0.111100
      2 C2           5.5300    -1.1700     0.3240 c3         1 8XT       0.100000
      3 C3           3.1350    -0.9920    -0.1780 c          1 8XT       0.632300
      4 C7          -1.5450     0.9520    -0.2930 ca         1 8XT       0.397000
      5 C8          -2.4230    -1.0890     0.7230 c6         1 8XT       0.180500
      6 C9          -2.8080    -0.5740     2.1080 c3         1 8XT      -0.117100
      7 C10         -3.2800    -2.2650     0.2770 c6         1 8XT       0.149600
      8 C11         -4.6620    -0.9150    -0.9890 c6         1 8XT       0.147600
      9 C12         -3.8640     0.3280    -0.6400 c6         1 8XT       0.160800
     10 C13         -1.8620     2.3090    -0.3870 ca         1 8XT      -0.282000
     11 C14         -0.8630     3.2840    -0.3850 ca         1 8XT       0.397900
     12 C15          0.7340     1.7540    -0.2240 ca         1 8XT       0.398500
     13 N1           4.2840    -0.4330     0.2370 ns         1 8XT      -0.508900
     14 O1           3.0430    -2.1620    -0.5280 o          1 8XT      -0.590100
     15 C4           1.9520    -0.1100    -0.2040 cc         1 8XT      -0.159300
     16 C5           0.6450    -0.5140    -0.2370 cd         1 8XT      -0.139200
     17 N4           1.9990     1.2620    -0.1790 na         1 8XT      -0.319400
     18 C6          -0.1600     0.6610    -0.2290 ca         1 8XT      -0.188800
     19 N2          -2.4990    -0.0390    -0.3020 nh         1 8XT      -0.786400
     20 N3           0.4340     3.0460    -0.2970 nb         1 8XT      -0.713000
     21 O2          -4.6120    -1.8820     0.0330 os         1 8XT      -0.442000
     22 H1           6.6470     0.4350     1.2610 hc         1 8XT       0.042367
     23 H2           7.6380    -0.7700     0.4480 hc         1 8XT       0.042367
     24 H3           6.7460     0.4170    -0.5040 hc         1 8XT       0.042367
     25 H4           5.6150    -1.8130    -0.5510 h1         1 8XT       0.054200
     26 H5           5.5280    -1.8230     1.2010 h1         1 8XT       0.054200
     27 H6          -1.4010    -1.4590     0.7720 h1         1 8XT       0.073700
     28 H7          -2.6850    -1.3650     2.8490 hc         1 8XT       0.045367
     29 H8          -2.1690     0.2590     2.4050 hc         1 8XT       0.045367
     30 H9          -3.8430    -0.2350     2.1510 hc         1 8XT       0.045367
     31 H10         -2.8370    -2.7130    -0.6240 h1         1 8XT       0.056700
     32 H11         -3.2930    -3.0270     1.0580 h1         1 8XT       0.056700
     33 H12         -5.7070    -0.6440    -1.1400 h1         1 8XT       0.054200
     34 H13         -4.2820    -1.3350    -1.9310 h1         1 8XT       0.054200
     35 H14         -3.8570     0.9740    -1.5190 h1         1 8XT       0.049200
     36 H15         -4.3600     0.8840     0.1660 h1         1 8XT       0.049200
     37 H16         -2.8880     2.6440    -0.4350 ha         1 8XT       0.121000
     38 H17         -1.1570     4.3270    -0.4450 h4         1 8XT       0.016100
     39 H18          4.2550     0.4570     0.7110 hn         1 8XT       0.309500
     40 H19          0.3280    -1.5430    -0.2650 ha         1 8XT       0.219000
     41 H20          2.8210     1.8360    -0.2860 hn         1 8XT       0.359000
@<TRIPOS>BOND
     1     1     2 1   
     2     1    22 1   
     3     1    23 1   
     4     1    24 1   
     5     2    13 1   
     6     2    25 1   
     7     2    26 1   
     8     3    13 1   
     9     3    14 2   
    10     3    15 1   
    11     4    10 ar  
    12     4    18 ar  
    13     4    19 1   
    14     5     6 1   
    15     5     7 1   
    16     5    19 1   
    17     5    27 1   
    18     6    28 1   
    19     6    29 1   
    20     6    30 1   
    21     7    21 1   
    22     7    31 1   
    23     7    32 1   
    24     8     9 1   
    25     8    21 1   
    26     8    33 1   
    27     8    34 1   
    28     9    19 1   
    29     9    35 1   
    30     9    36 1   
    31    10    11 ar  
    32    10    37 1   
    33    11    20 ar  
    34    11    38 1   
    35    12    17 1   
    36    12    18 ar  
    37    12    20 ar  
    38    13    39 1   
    39    15    16 2   
    40    15    17 1   
    41    16    18 1   
    42    16    40 1   
    43    17    41 1   
@<TRIPOS>SUBSTRUCTURE
     1 8XT         1 TEMP              0 ****  ****    0 ROOT
