@<TRIPOS>MOLECULE
8XV
   56    60     1     0     0
SMALL
abcg2


@<TRIPOS>ATOM
      1 C17         -4.0950     0.0780    -0.4570 ca         1 8XV       0.119600
      2 C16         -3.6430    -1.2220    -0.1880 ca         1 8XV      -0.156800
      3 C15         -2.2490    -1.4350     0.0850 cc         1 8XV       0.373900
      4 C19         -1.8710     0.9800    -0.1780 c          1 8XV       0.607200
      5 C20         -4.5370    -2.3030    -0.1780 ca         1 8XV      -0.059000
      6 C21         -5.8610    -2.0720    -0.4270 ca         1 8XV       0.130000
      7 C22         -6.3370    -0.7940    -0.6880 ca         1 8XV      -0.079000
      8 C23         -5.4630     0.2690    -0.7020 ca         1 8XV      -0.150000
      9 C27         -4.7440     4.5500     0.1660 cx         1 8XV      -0.128700
     10 C33          8.6400     0.5450     0.1040 c          1 8XV       0.607100
     11 C1           2.8800    -0.8240     0.7520 ca         1 8XV      -0.294500
     12 C2           2.2470     0.3810     0.4590 ca         1 8XV       0.315000
     13 C3           3.0380     1.4800     0.1480 ca         1 8XV      -0.112000
     14 C4           4.4150     1.3710     0.1240 ca         1 8XV      -0.132000
     15 C5           5.0380     0.1490     0.3940 ca         1 8XV       0.110100
     16 C6           4.2570    -0.9560     0.7130 ca         1 8XV      -0.006000
     17 O7           6.3670    -0.0480     0.3770 os         1 8XV      -0.302100
     18 S8           1.8720    -2.1480     1.3010 sy         1 8XV       1.249100
     19 N9           0.4410    -1.8090     0.6030 ne         1 8XV      -0.932300
     20 C10          0.0380    -0.5700     0.3960 cf         1 8XV       0.884500
     21 N11          0.8650     0.4760     0.4190 nu         1 8XV      -0.910200
     22 O13          1.7360    -2.0430     2.7460 o          1 8XV      -0.535000
     23 C14         -1.3750    -0.3570     0.0950 cd         1 8XV      -0.488800
     24 N18         -3.2010     1.1310    -0.4750 n          1 8XV      -0.269000
     25 F24         -6.7260    -3.0940    -0.4170 f          1 8XV      -0.167000
     26 C25         -3.6770     2.4900    -0.7440 c3         1 8XV       0.089000
     27 C26         -4.2270     3.1760     0.5010 c3         1 8XV      -0.067400
     28 O28         -1.1400     1.9760    -0.1500 o          1 8XV      -0.606000
     29 O29         -1.8950    -2.6670     0.3180 oh         1 8XV      -0.520100
     30 C30         -5.8490     5.1530     0.9760 cx         1 8XV      -0.129900
     31 C31         -6.1130     4.6960    -0.4280 cx         1 8XV      -0.129900
     32 C32          7.2030     1.0440     0.0920 c3         1 8XV       0.069600
     33 N34          9.5430     1.5320     0.0690 nt         1 8XV      -0.616000
     34 O35          8.9170    -0.6400     0.1210 o          1 8XV      -0.559100
     35 H40         -4.1890    -3.3060     0.0260 ha         1 8XV       0.160000
     36 H41         -7.3900    -0.6300    -0.8760 ha         1 8XV       0.140000
     37 H42         -5.8700     1.2480    -0.9030 ha         1 8XV       0.133000
     38 H47         -3.9910     5.2410    -0.2010 hc         1 8XV       0.082700
     39 H36          2.5750     2.4290    -0.0920 ha         1 8XV       0.125000
     40 H37          4.9890     2.2540    -0.1210 ha         1 8XV       0.118000
     41 H38          4.7290    -1.9030     0.9390 ha         1 8XV       0.158000
     42 H39          0.4130     1.3760     0.2130 hn         1 8XV       0.569000
     43 H44         -2.8460     3.0600    -1.1480 h1         1 8XV       0.071700
     44 H43         -4.4260     2.4450    -1.5330 h1         1 8XV       0.071700
     45 H46         -3.4420     3.2400     1.2580 hc         1 8XV       0.056200
     46 H45         -5.0330     2.5770     0.9360 hc         1 8XV       0.056200
     47 H48         -0.9040    -2.6810     0.4890 ho         1 8XV       0.569000
     48 H50         -6.2600     4.5610     1.7850 hc         1 8XV       0.071700
     49 H49         -5.8210     6.2170     1.1730 hc         1 8XV       0.071700
     50 H51         -6.2660     5.4460    -1.1940 hc         1 8XV       0.071700
     51 H52         -6.7020     3.7960    -0.5640 hc         1 8XV       0.071700
     52 H54          7.0760     1.8460     0.8270 h1         1 8XV       0.048200
     53 H53          6.9890     1.4670    -0.8970 h1         1 8XV       0.048200
     54 H55         10.5270     1.3210     0.0290 hn         1 8XV       0.317500
     55 H56          9.2790     2.5020     0.0690 hn         1 8XV       0.317500
     56 O12          2.3540    -3.4100     0.7660 o          1 8XV      -0.535000
@<TRIPOS>BOND
     1     1     2 ar  
     2     1     8 ar  
     3     1    24 1   
     4     2     3 1   
     5     2     5 ar  
     6     3    23 2   
     7     3    29 1   
     8     4    23 1   
     9     4    24 1   
    10     4    28 2   
    11     5     6 ar  
    12     5    35 1   
    13     6     7 ar  
    14     6    25 1   
    15     7     8 ar  
    16     7    36 1   
    17     8    37 1   
    18     9    27 1   
    19     9    30 1   
    20     9    31 1   
    21     9    38 1   
    22    10    32 1   
    23    10    33 1   
    24    10    34 2   
    25    11    12 ar  
    26    11    16 ar  
    27    11    18 1   
    28    12    13 ar  
    29    12    21 1   
    30    13    14 ar  
    31    13    39 1   
    32    14    15 ar  
    33    14    40 1   
    34    15    16 ar  
    35    15    17 1   
    36    16    41 1   
    37    17    32 1   
    38    18    19 1   
    39    18    22 2   
    40    18    56 2   
    41    19    20 2   
    42    20    21 1   
    43    20    23 1   
    44    21    42 1   
    45    24    26 1   
    46    26    27 1   
    47    26    43 1   
    48    26    44 1   
    49    27    45 1   
    50    27    46 1   
    51    29    47 1   
    52    30    31 1   
    53    30    48 1   
    54    30    49 1   
    55    31    50 1   
    56    31    51 1   
    57    32    52 1   
    58    32    53 1   
    59    33    54 1   
    60    33    55 1   
@<TRIPOS>SUBSTRUCTURE
     1 8XV         1 TEMP              0 ****  ****    0 ROOT
