@<TRIPOS>MOLECULE
8XV
   56    60     1     0     0
SMALL
No Charge or Current Charge


@<TRIPOS>ATOM
      1 C17         -4.1260     0.0640    -0.5280 ca         1 8XV       0.119600
      2 C16         -3.6400    -1.2530    -0.4180 ca         1 8XV      -0.156800
      3 C15         -2.2320    -1.4900    -0.0990 cc         1 8XV       0.373900
      4 C19         -1.8710     0.9580     0.0750 c          1 8XV       0.607200
      5 C20         -4.5320    -2.3410    -0.6050 ca         1 8XV      -0.059000
      6 C21         -5.8890    -2.1180    -0.8650 ca         1 8XV       0.130000
      7 C22         -6.3850    -0.8130    -0.9270 ca         1 8XV      -0.079000
      8 C23         -5.5130     0.2710    -0.7460 ca         1 8XV      -0.150000
      9 C27         -4.8760     4.5970     0.4140 cx         1 8XV      -0.128700
     10 C33          8.8390     0.6550     0.3710 c          1 8XV       0.607100
     11 C1           2.8570    -0.7330     0.9470 ca         1 8XV      -0.294500
     12 C2           2.2800     0.2540     0.1750 ca         1 8XV       0.315000
     13 C3           3.0770     1.2210    -0.4550 ca         1 8XV      -0.112000
     14 C4           4.4790     1.1730    -0.3170 ca         1 8XV      -0.132000
     15 C5           5.0750     0.1520     0.4620 ca         1 8XV       0.110100
     16 C6           4.2570    -0.8010     1.0970 ca         1 8XV      -0.006000
     17 O7           6.4420     0.0530     0.6340 os         1 8XV      -0.302100
     18 S8           1.7560    -1.8660     1.7550 sy         1 8XV       1.249100
     19 N9           0.4110    -1.8370     0.7990 ne         1 8XV      -0.932300
     20 C10          0.0170    -0.6470     0.5170 cf         1 8XV       0.884500
     21 N11          0.9170     0.2420     0.0730 nu         1 8XV      -0.910200
     22 O13          1.3980    -1.2680     3.0450 o          1 8XV      -0.535000
     23 C14         -1.3780    -0.4370     0.1530 cd         1 8XV      -0.488800
     24 N18         -3.2210     1.1540    -0.2880 n          1 8XV      -0.269000
     25 F24         -6.7250    -3.1660    -1.0350 f          1 8XV      -0.167000
     26 C25         -3.6730     2.5550    -0.5320 c3         1 8XV       0.089000
     27 C26         -4.3410     3.1990     0.7020 c3         1 8XV      -0.067400
     28 O28         -1.1400     1.9140     0.3000 o          1 8XV      -0.606000
     29 O29         -1.8390    -2.7710    -0.0460 oh         1 8XV      -0.520100
     30 C30         -6.0170     5.1740     1.2180 cx         1 8XV      -0.129900
     31 C31         -6.2270     4.7940    -0.2310 cx         1 8XV      -0.129900
     32 C32          7.3670     0.9840     0.0260 c3         1 8XV       0.069600
     33 N34          9.7710     1.4820    -0.1620 nt         1 8XV      -0.616000
     34 O35          9.1910    -0.2810     1.0750 o          1 8XV      -0.559100
     35 H40         -4.1880    -3.3700    -0.5400 ha         1 8XV       0.160000
     36 H41         -7.4440    -0.6430    -1.1090 ha         1 8XV       0.140000
     37 H42         -5.9410     1.2670    -0.7840 ha         1 8XV       0.133000
     38 H47         -4.0900     5.2910     0.1220 hc         1 8XV       0.082700
     39 H36          2.6160     2.0000    -1.0560 ha         1 8XV       0.125000
     40 H37          5.0790     1.9280    -0.8170 ha         1 8XV       0.118000
     41 H38          4.7140    -1.5800     1.7050 ha         1 8XV       0.158000
     42 H39          0.4580     1.1270    -0.1450 hn         1 8XV       0.569000
     43 H44         -2.8240     3.1780    -0.8410 h1         1 8XV       0.071700
     44 H43         -4.3650     2.5730    -1.3820 h1         1 8XV       0.071700
     45 H46         -3.6080     3.2490     1.5160 hc         1 8XV       0.056200
     46 H45         -5.1510     2.5510     1.0580 hc         1 8XV       0.056200
     47 H48         -0.8940    -2.6820     0.2750 ho         1 8XV       0.569000
     48 H50         -6.4790     4.5470     1.9780 hc         1 8XV       0.071700
     49 H49         -5.9790     6.2320     1.4650 hc         1 8XV       0.071700
     50 H51         -6.3300     5.5970    -0.9560 hc         1 8XV       0.071700
     51 H52         -6.8300     3.9130    -0.4400 hc         1 8XV       0.071700
     52 H54          7.1680     2.0060     0.3700 h1         1 8XV       0.048200
     53 H53          7.2720     0.9650    -1.0670 h1         1 8XV       0.048200
     54 H55         10.7470     1.3130     0.0310 hn         1 8XV       0.317500
     55 H56          9.4890     2.2570    -0.7450 hn         1 8XV       0.317500
     56 O12          2.3560    -3.2020     1.6890 o          1 8XV      -0.535000
@<TRIPOS>BOND
     1     1     2 ar  
     2     1     8 ar  
     3     1    24 1   
     4     2     3 1   
     5     2     5 ar  
     6     3    23 2   
     7     3    29 1   
     8     4    23 1   
     9     4    24 1   
    10     4    28 2   
    11     5     6 ar  
    12     5    35 1   
    13     6     7 ar  
    14     6    25 1   
    15     7     8 ar  
    16     7    36 1   
    17     8    37 1   
    18     9    27 1   
    19     9    30 1   
    20     9    31 1   
    21     9    38 1   
    22    10    32 1   
    23    10    33 1   
    24    10    34 2   
    25    11    12 ar  
    26    11    16 ar  
    27    11    18 1   
    28    12    13 ar  
    29    12    21 1   
    30    13    14 ar  
    31    13    39 1   
    32    14    15 ar  
    33    14    40 1   
    34    15    16 ar  
    35    15    17 1   
    36    16    41 1   
    37    17    32 1   
    38    18    19 1   
    39    18    22 2   
    40    18    56 2   
    41    19    20 2   
    42    20    21 1   
    43    20    23 1   
    44    21    42 1   
    45    24    26 1   
    46    26    27 1   
    47    26    43 1   
    48    26    44 1   
    49    27    45 1   
    50    27    46 1   
    51    29    47 1   
    52    30    31 1   
    53    30    48 1   
    54    30    49 1   
    55    31    50 1   
    56    31    51 1   
    57    32    52 1   
    58    32    53 1   
    59    33    54 1   
    60    33    55 1   
@<TRIPOS>SUBSTRUCTURE
     1 8XV         1 TEMP              0 ****  ****    0 ROOT
